                                   MODFLOW 6
                U.S. GEOLOGICAL SURVEY MODULAR HYDROLOGIC MODEL
                          GROUNDWATER FLOW MODEL (GWF)
                  VERSION 6.7.0.dev2 (preliminary) 05/20/2025
                               ***DEVELOP MODE***

        MODFLOW 6 compiled May 20 2025 13:40:03 with GCC version 13.3.0

This software is preliminary or provisional and is subject to 
revision. It is being provided to meet the need for timely best 
science. The software has not received final approval by the U.S. 
Geological Survey (USGS). No warranty, expressed or implied, is made 
by the USGS or the U.S. Government as to the functionality of the 
software and related material nor shall the fact of release 
constitute any such warranty. The software is provided on the 
condition that neither the USGS nor the U.S. Government shall be held 
liable for any damages resulting from the authorized or unauthorized 
use of the software.


As a work of the United States Government, this USGS product is 
in the public domain within the United States. You can copy, 
modify, distribute, and perform the work, even for commercial 
purposes, all without asking permission. Additionally, USGS 
waives copyright and related rights in the work worldwide 
through CC0 1.0 Universal Public Domain Dedication 
(https://creativecommons.org/publicdomain/zero/1.0/).

The following GNU Lesser General Public License (LGPL) libraries
are used in this USGS product:

    SPARSKIT version 2.0
      ilut, luson, and qsplit 
      (https://www-users.cse.umn.edu/~saad/software/SPARSKIT/)

    RCM - Reverse Cuthill McKee Ordering
      (https://people.math.sc.edu/Burkardt/f_src/rcm/rcm.html)

    BLAS - Basic Linear Algebra Subprograms Level 1
      (https://people.math.sc.edu/Burkardt/f_src/blas1_d/blas1_d.html)

    SPARSEKIT - Sparse Matrix Utility Package
      amux, dperm, dvperm, rperm, and cperm
      (https://people.sc.fsu.edu/~jburkardt/f77_src/sparsekit/sparsekit.html)

The following BSD-3 License libraries are used in this USGS product:

    Modern Fortran DAG Library
      Copyright (c) 2018, Jacob Williams
      All rights reserved.
      (https://github.com/jacobwilliams/daglib)

MODFLOW 6 compiler options: -fdiagnostics-color=always -cpp -I
src/libmf6core.a.p -I src -I ../src -I src/libmf6_external.a.p -iprefix
/opt/homebrew/Cellar/gcc@13/13.3.0/bin/../lib/gcc/13/gcc/aarch64-apple-darwin2
3/13/ -D__DYNAMIC__ -D __APPLE__ -fPIC -mmacosx-version-min=14.0.0
-mcpu=apple-m1 -mlittle-endian -mabi=lp64 -O1 -Wall -Wpedantic
-Wcharacter-truncation -Wno-unused-dummy-argument -Wno-intrinsic-shadow
-Wno-maybe-uninitialized -Wno-uninitialized -std=f2018 -fall-intrinsics
-ffpe-summary=overflow -ffpe-trap=overflow,zero,invalid -J src/libmf6core.a.p

System command used to initiate simulation:
/Users/mike/hydrocomputing/projects/2021/003_ModSimple_Phase2/Bearbeitung/MODFLOW6/nightly/20250520/mf6.7.0.dev2_macarm/bin/mf6

MODFLOW was compiled using uniform precision.

Real Variables
  KIND: 8
  TINY (smallest non-zero value):    2.225074-308
  HUGE (largest value):    1.797693+308
  PRECISION: 15
  SIZE IN BITS: 64

Integer Variables
  KIND: 4
  HUGE (largest value): 2147483647
  SIZE IN BITS: 32

Long Integer Variables
  KIND: 8
  HUGE (largest value): 9223372036854775807
  SIZE IN BITS: 64

Logical Variables
  KIND: 4
  SIZE IN BITS: 32

 NAMEFILE OPTIONS:
    FLOWS WILL BE SAVED TO BUDGET FILE SPECIFIED IN OUTPUT CONTROL
 END NAMEFILE OPTIONS:

 DIS -- STRUCTURED GRID DISCRETIZATION PACKAGE, VERSION 2 : 3/27/2014 - INPUT READ FROM MEMPATH: __INPUT__/GWF_TRANSBASE/DIS                       


 NPF -- NODE PROPERTY FLOW PACKAGE, VERSION 1, 3/30/2015 INPUT READ FROM MEMPATH: __INPUT__/GWF_TRANSBASE/NPF                       


 IC -- Initial Conditions Package, Version 8, 3/28/2015 input read from mempath: __INPUT__/GWF_TRANSBASE/IC                        


 Setting Discretization Options
    Model length unit [0=UND, 1=FEET, 2=METERS, 3=CENTIMETERS] set as 2
 End Setting Discretization Options

 Setting Discretization Dimensions
    NLAY = 3
    NROW = 15
    NCOL = 10
 End Setting Discretization Dimensions

 Setting Discretization Griddata
    DELR set from input file
    DELC set from input file
    TOP set from input file
    BOTM set from input file
 End Setting Discretization Griddata

 Setting NPF Options
    Cell-by-cell flow information will be saved to binary file whenever ICBCFL is not zero.
    Specific discharge will be calculated at cell centers and written to DATA-SPDIS in budget file when requested.
 End Setting NPF Options

 Setting NPF Griddata
    ICELLTYPE set from input file
    K set from input file
    K33 set from input file
    K22 not provided.  Setting K22 = K.
 End Setting NPF Griddata


 WEL   -- WEL PACKAGE, VERSION 8, 2/22/2014 INPUT READ FROM MEMPATH: __INPUT__/GWF_TRANSBASE/WEL-1                     

 PROCESSING WEL BASE OPTIONS
 END OF WEL BASE OPTIONS

 PROCESSING WEL OPTIONS
 END OF WEL OPTIONS

 PROCESSING WEL BASE DIMENSIONS
    MAXBOUND =       3
 END OF WEL BASE DIMENSIONS

 CHD   -- CHD PACKAGE, VERSION 8, 2/22/2014 INPUT READ FROM MEMPATH: __INPUT__/GWF_TRANSBASE/CHD-1                     

 PROCESSING CHD BASE OPTIONS
 END OF CHD BASE OPTIONS

 PROCESSING CHD BASE DIMENSIONS
    MAXBOUND =       2
 END OF CHD BASE DIMENSIONS
    STRT set from input file

 STO -- STORAGE PACKAGE, VERSION 1, 5/19/2014 INPUT READ FROM MEMPATH: __INPUT__/GWF_TRANSBASE/STO                       


 PROCESSING STORAGE OPTIONS
    CELL-BY-CELL FLOW INFORMATION WILL BE SAVED TO BINARY FILE WHENEVER ICBCFL IS NOT ZERO.
 END OF STORAGE OPTIONS
    BINARY GRID INFORMATION WILL BE WRITTEN TO:
      UNIT NUMBER: 1025
      FILE NAME: gwf_transbase.dis.grb

 OPENED gwf_transbase.dis.grb
 FILE TYPE:DATA(BINARY)   UNIT 1025   STATUS:REPLACE             
 FORMAT:UNFORMATTED            ACCESS:STREAM              
 ACTION:READWRITE           

      THE LAST TIME STEP WILL BE PRINTED
      THE LAST TIME STEP WILL BE PRINTED
 # File generated by Flopy version 3.9.3 on 06/29/2025 at 15:13:48.

 PROCESSING OC OPTIONS

    BUDGET INFORMATION WILL BE WRITTEN TO:
      UNIT NUMBER: 1026
      FILE NAME: gwf_transbase.bud

 OPENED gwf_transbase.bud
 FILE TYPE:DATA(BINARY)   UNIT 1026   STATUS:REPLACE             
 FORMAT:UNFORMATTED            ACCESS:STREAM              
 ACTION:READWRITE           

    HEAD INFORMATION WILL BE WRITTEN TO:
      UNIT NUMBER: 1027
      FILE NAME: gwf_transbase.hds

 OPENED gwf_transbase.hds
 FILE TYPE:DATA(BINARY)   UNIT 1027   STATUS:REPLACE             
 FORMAT:UNFORMATTED            ACCESS:STREAM              
 ACTION:READWRITE           

 END OF OC OPTIONS

start timestep kper="1" kstp="1" mode="normal"


 BEGIN READING OUTPUT CONTROL FOR STRESS PERIOD 1
      ALL TIME STEPS WILL BE SAVED
      ALL TIME STEPS WILL BE SAVED

 END READING OUTPUT CONTROL FOR STRESS PERIOD 1


 PROCESSING STORAGE PERIOD DATA
 END PROCESSING STORAGE PERIOD DATA


 STRESS PERIOD 1 IS STEADY-STATE

 UBDSV1 SAVING           STO-SS ON UNIT   1026 AT TIME STEP      1, STRESS PERIOD      1
 UBDSV1 SAVING           STO-SY ON UNIT   1026 AT TIME STEP      1, STRESS PERIOD      1
 UBDSV1 SAVING     FLOW-JA-FACE ON UNIT   1026 AT TIME STEP      1, STRESS PERIOD      1
 UBDSV06 SAVING       DATA-SPDIS IN MODEL GWF_TRANSBASE    PACKAGE NPF             CONNECTED TO MODEL GWF_TRANSBASE    PACKAGE NPF              ON UNIT   1026 AT TIME STEP      1, STRESS PERIOD      1
 UBDSV06 SAVING              WEL IN MODEL GWF_TRANSBASE    PACKAGE GWF_TRANSBASE   CONNECTED TO MODEL GWF_TRANSBASE    PACKAGE WEL-1            ON UNIT   1026 AT TIME STEP      1, STRESS PERIOD      1
 UBDSV06 SAVING              CHD IN MODEL GWF_TRANSBASE    PACKAGE GWF_TRANSBASE   CONNECTED TO MODEL GWF_TRANSBASE    PACKAGE CHD-1            ON UNIT   1026 AT TIME STEP      1, STRESS PERIOD      1

 HEAD WILL BE SAVED ON UNIT 1027 AT END OF TIME STEP    1, STRESS PERIOD    1


  VOLUME BUDGET FOR ENTIRE MODEL AT END OF TIME STEP    1, STRESS PERIOD   1
  ---------------------------------------------------------------------------------------------------

     CUMULATIVE VOLUME      L**3       RATES FOR THIS TIME STEP      L**3/T          PACKAGE NAME    
     ------------------                 ------------------------                     ----------------

           IN:                                      IN:
           ---                                      ---
              STO-SS =           0.0000                STO-SS =           0.0000     STORAGE                          
              STO-SY =           0.0000                STO-SY =           0.0000     STORAGE                          
                 WEL =           0.0000                   WEL =           0.0000     WEL-1                            
                 CHD =           0.0000                   CHD =           0.0000     CHD-1                            

            TOTAL IN =           0.0000              TOTAL IN =           0.0000

          OUT:                                     OUT:
          ----                                     ----
              STO-SS =           0.0000                STO-SS =           0.0000     STORAGE                          
              STO-SY =           0.0000                STO-SY =           0.0000     STORAGE                          
                 WEL =           0.0000                   WEL =           0.0000     WEL-1                            
                 CHD =           0.0000                   CHD =           0.0000     CHD-1                            

           TOTAL OUT =           0.0000             TOTAL OUT =           0.0000

            IN - OUT =           0.0000              IN - OUT =           0.0000

 PERCENT DISCREPANCY =           0.00     PERCENT DISCREPANCY =           0.00




         TIME SUMMARY AT END OF TIME STEP    1 IN STRESS PERIOD    1
                    SECONDS     MINUTES      HOURS       DAYS        YEARS
                    -----------------------------------------------------------
   TIME STEP LENGTH  86400.      1440.0      24.000      1.0000     2.73785E-03
 STRESS PERIOD TIME  86400.      1440.0      24.000      1.0000     2.73785E-03
         TOTAL TIME  86400.      1440.0      24.000      1.0000     2.73785E-03


end timestep


start timestep kper="2" kstp="1" mode="normal"


 END OF FILE DETECTED IN OUTPUT CONTROL.
 CURRENT OUTPUT CONTROL SETTINGS WILL BE 
 REPEATED UNTIL THE END OF THE SIMULATION.

 OUTPUT CONTROL FOR STRESS PERIOD 2 IS REPEATED USING SETTINGS FROM A PREVIOUS STRESS PERIOD.


 PROCESSING STORAGE PERIOD DATA
 END PROCESSING STORAGE PERIOD DATA


 STRESS PERIOD 2 IS TRANSIENT

 UBDSV1 SAVING           STO-SS ON UNIT   1026 AT TIME STEP      1, STRESS PERIOD      2
 UBDSV1 SAVING           STO-SY ON UNIT   1026 AT TIME STEP      1, STRESS PERIOD      2
 UBDSV1 SAVING     FLOW-JA-FACE ON UNIT   1026 AT TIME STEP      1, STRESS PERIOD      2
 UBDSV06 SAVING       DATA-SPDIS IN MODEL GWF_TRANSBASE    PACKAGE NPF             CONNECTED TO MODEL GWF_TRANSBASE    PACKAGE NPF              ON UNIT   1026 AT TIME STEP      1, STRESS PERIOD      2
 UBDSV06 SAVING              WEL IN MODEL GWF_TRANSBASE    PACKAGE GWF_TRANSBASE   CONNECTED TO MODEL GWF_TRANSBASE    PACKAGE WEL-1            ON UNIT   1026 AT TIME STEP      1, STRESS PERIOD      2
 UBDSV06 SAVING              CHD IN MODEL GWF_TRANSBASE    PACKAGE GWF_TRANSBASE   CONNECTED TO MODEL GWF_TRANSBASE    PACKAGE CHD-1            ON UNIT   1026 AT TIME STEP      1, STRESS PERIOD      2

 HEAD WILL BE SAVED ON UNIT 1027 AT END OF TIME STEP    1, STRESS PERIOD    2

end timestep


start timestep kper="2" kstp="2" mode="normal"

 UBDSV1 SAVING           STO-SS ON UNIT   1026 AT TIME STEP      2, STRESS PERIOD      2
 UBDSV1 SAVING           STO-SY ON UNIT   1026 AT TIME STEP      2, STRESS PERIOD      2
 UBDSV1 SAVING     FLOW-JA-FACE ON UNIT   1026 AT TIME STEP      2, STRESS PERIOD      2
 UBDSV06 SAVING       DATA-SPDIS IN MODEL GWF_TRANSBASE    PACKAGE NPF             CONNECTED TO MODEL GWF_TRANSBASE    PACKAGE NPF              ON UNIT   1026 AT TIME STEP      2, STRESS PERIOD      2
 UBDSV06 SAVING              WEL IN MODEL GWF_TRANSBASE    PACKAGE GWF_TRANSBASE   CONNECTED TO MODEL GWF_TRANSBASE    PACKAGE WEL-1            ON UNIT   1026 AT TIME STEP      2, STRESS PERIOD      2
 UBDSV06 SAVING              CHD IN MODEL GWF_TRANSBASE    PACKAGE GWF_TRANSBASE   CONNECTED TO MODEL GWF_TRANSBASE    PACKAGE CHD-1            ON UNIT   1026 AT TIME STEP      2, STRESS PERIOD      2

 HEAD WILL BE SAVED ON UNIT 1027 AT END OF TIME STEP    2, STRESS PERIOD    2

end timestep


start timestep kper="2" kstp="3" mode="normal"

 UBDSV1 SAVING           STO-SS ON UNIT   1026 AT TIME STEP      3, STRESS PERIOD      2
 UBDSV1 SAVING           STO-SY ON UNIT   1026 AT TIME STEP      3, STRESS PERIOD      2
 UBDSV1 SAVING     FLOW-JA-FACE ON UNIT   1026 AT TIME STEP      3, STRESS PERIOD      2
 UBDSV06 SAVING       DATA-SPDIS IN MODEL GWF_TRANSBASE    PACKAGE NPF             CONNECTED TO MODEL GWF_TRANSBASE    PACKAGE NPF              ON UNIT   1026 AT TIME STEP      3, STRESS PERIOD      2
 UBDSV06 SAVING              WEL IN MODEL GWF_TRANSBASE    PACKAGE GWF_TRANSBASE   CONNECTED TO MODEL GWF_TRANSBASE    PACKAGE WEL-1            ON UNIT   1026 AT TIME STEP      3, STRESS PERIOD      2
 UBDSV06 SAVING              CHD IN MODEL GWF_TRANSBASE    PACKAGE GWF_TRANSBASE   CONNECTED TO MODEL GWF_TRANSBASE    PACKAGE CHD-1            ON UNIT   1026 AT TIME STEP      3, STRESS PERIOD      2

 HEAD WILL BE SAVED ON UNIT 1027 AT END OF TIME STEP    3, STRESS PERIOD    2

end timestep


start timestep kper="2" kstp="4" mode="normal"

 UBDSV1 SAVING           STO-SS ON UNIT   1026 AT TIME STEP      4, STRESS PERIOD      2
 UBDSV1 SAVING           STO-SY ON UNIT   1026 AT TIME STEP      4, STRESS PERIOD      2
 UBDSV1 SAVING     FLOW-JA-FACE ON UNIT   1026 AT TIME STEP      4, STRESS PERIOD      2
 UBDSV06 SAVING       DATA-SPDIS IN MODEL GWF_TRANSBASE    PACKAGE NPF             CONNECTED TO MODEL GWF_TRANSBASE    PACKAGE NPF              ON UNIT   1026 AT TIME STEP      4, STRESS PERIOD      2
 UBDSV06 SAVING              WEL IN MODEL GWF_TRANSBASE    PACKAGE GWF_TRANSBASE   CONNECTED TO MODEL GWF_TRANSBASE    PACKAGE WEL-1            ON UNIT   1026 AT TIME STEP      4, STRESS PERIOD      2
 UBDSV06 SAVING              CHD IN MODEL GWF_TRANSBASE    PACKAGE GWF_TRANSBASE   CONNECTED TO MODEL GWF_TRANSBASE    PACKAGE CHD-1            ON UNIT   1026 AT TIME STEP      4, STRESS PERIOD      2

 HEAD WILL BE SAVED ON UNIT 1027 AT END OF TIME STEP    4, STRESS PERIOD    2

end timestep


start timestep kper="2" kstp="5" mode="normal"

 UBDSV1 SAVING           STO-SS ON UNIT   1026 AT TIME STEP      5, STRESS PERIOD      2
 UBDSV1 SAVING           STO-SY ON UNIT   1026 AT TIME STEP      5, STRESS PERIOD      2
 UBDSV1 SAVING     FLOW-JA-FACE ON UNIT   1026 AT TIME STEP      5, STRESS PERIOD      2
 UBDSV06 SAVING       DATA-SPDIS IN MODEL GWF_TRANSBASE    PACKAGE NPF             CONNECTED TO MODEL GWF_TRANSBASE    PACKAGE NPF              ON UNIT   1026 AT TIME STEP      5, STRESS PERIOD      2
 UBDSV06 SAVING              WEL IN MODEL GWF_TRANSBASE    PACKAGE GWF_TRANSBASE   CONNECTED TO MODEL GWF_TRANSBASE    PACKAGE WEL-1            ON UNIT   1026 AT TIME STEP      5, STRESS PERIOD      2
 UBDSV06 SAVING              CHD IN MODEL GWF_TRANSBASE    PACKAGE GWF_TRANSBASE   CONNECTED TO MODEL GWF_TRANSBASE    PACKAGE CHD-1            ON UNIT   1026 AT TIME STEP      5, STRESS PERIOD      2

 HEAD WILL BE SAVED ON UNIT 1027 AT END OF TIME STEP    5, STRESS PERIOD    2

end timestep


start timestep kper="2" kstp="6" mode="normal"

 UBDSV1 SAVING           STO-SS ON UNIT   1026 AT TIME STEP      6, STRESS PERIOD      2
 UBDSV1 SAVING           STO-SY ON UNIT   1026 AT TIME STEP      6, STRESS PERIOD      2
 UBDSV1 SAVING     FLOW-JA-FACE ON UNIT   1026 AT TIME STEP      6, STRESS PERIOD      2
 UBDSV06 SAVING       DATA-SPDIS IN MODEL GWF_TRANSBASE    PACKAGE NPF             CONNECTED TO MODEL GWF_TRANSBASE    PACKAGE NPF              ON UNIT   1026 AT TIME STEP      6, STRESS PERIOD      2
 UBDSV06 SAVING              WEL IN MODEL GWF_TRANSBASE    PACKAGE GWF_TRANSBASE   CONNECTED TO MODEL GWF_TRANSBASE    PACKAGE WEL-1            ON UNIT   1026 AT TIME STEP      6, STRESS PERIOD      2
 UBDSV06 SAVING              CHD IN MODEL GWF_TRANSBASE    PACKAGE GWF_TRANSBASE   CONNECTED TO MODEL GWF_TRANSBASE    PACKAGE CHD-1            ON UNIT   1026 AT TIME STEP      6, STRESS PERIOD      2

 HEAD WILL BE SAVED ON UNIT 1027 AT END OF TIME STEP    6, STRESS PERIOD    2

end timestep


start timestep kper="2" kstp="7" mode="normal"

 UBDSV1 SAVING           STO-SS ON UNIT   1026 AT TIME STEP      7, STRESS PERIOD      2
 UBDSV1 SAVING           STO-SY ON UNIT   1026 AT TIME STEP      7, STRESS PERIOD      2
 UBDSV1 SAVING     FLOW-JA-FACE ON UNIT   1026 AT TIME STEP      7, STRESS PERIOD      2
 UBDSV06 SAVING       DATA-SPDIS IN MODEL GWF_TRANSBASE    PACKAGE NPF             CONNECTED TO MODEL GWF_TRANSBASE    PACKAGE NPF              ON UNIT   1026 AT TIME STEP      7, STRESS PERIOD      2
 UBDSV06 SAVING              WEL IN MODEL GWF_TRANSBASE    PACKAGE GWF_TRANSBASE   CONNECTED TO MODEL GWF_TRANSBASE    PACKAGE WEL-1            ON UNIT   1026 AT TIME STEP      7, STRESS PERIOD      2
 UBDSV06 SAVING              CHD IN MODEL GWF_TRANSBASE    PACKAGE GWF_TRANSBASE   CONNECTED TO MODEL GWF_TRANSBASE    PACKAGE CHD-1            ON UNIT   1026 AT TIME STEP      7, STRESS PERIOD      2

 HEAD WILL BE SAVED ON UNIT 1027 AT END OF TIME STEP    7, STRESS PERIOD    2

end timestep


start timestep kper="2" kstp="8" mode="normal"

 UBDSV1 SAVING           STO-SS ON UNIT   1026 AT TIME STEP      8, STRESS PERIOD      2
 UBDSV1 SAVING           STO-SY ON UNIT   1026 AT TIME STEP      8, STRESS PERIOD      2
 UBDSV1 SAVING     FLOW-JA-FACE ON UNIT   1026 AT TIME STEP      8, STRESS PERIOD      2
 UBDSV06 SAVING       DATA-SPDIS IN MODEL GWF_TRANSBASE    PACKAGE NPF             CONNECTED TO MODEL GWF_TRANSBASE    PACKAGE NPF              ON UNIT   1026 AT TIME STEP      8, STRESS PERIOD      2
 UBDSV06 SAVING              WEL IN MODEL GWF_TRANSBASE    PACKAGE GWF_TRANSBASE   CONNECTED TO MODEL GWF_TRANSBASE    PACKAGE WEL-1            ON UNIT   1026 AT TIME STEP      8, STRESS PERIOD      2
 UBDSV06 SAVING              CHD IN MODEL GWF_TRANSBASE    PACKAGE GWF_TRANSBASE   CONNECTED TO MODEL GWF_TRANSBASE    PACKAGE CHD-1            ON UNIT   1026 AT TIME STEP      8, STRESS PERIOD      2

 HEAD WILL BE SAVED ON UNIT 1027 AT END OF TIME STEP    8, STRESS PERIOD    2

end timestep


start timestep kper="2" kstp="9" mode="normal"

 UBDSV1 SAVING           STO-SS ON UNIT   1026 AT TIME STEP      9, STRESS PERIOD      2
 UBDSV1 SAVING           STO-SY ON UNIT   1026 AT TIME STEP      9, STRESS PERIOD      2
 UBDSV1 SAVING     FLOW-JA-FACE ON UNIT   1026 AT TIME STEP      9, STRESS PERIOD      2
 UBDSV06 SAVING       DATA-SPDIS IN MODEL GWF_TRANSBASE    PACKAGE NPF             CONNECTED TO MODEL GWF_TRANSBASE    PACKAGE NPF              ON UNIT   1026 AT TIME STEP      9, STRESS PERIOD      2
 UBDSV06 SAVING              WEL IN MODEL GWF_TRANSBASE    PACKAGE GWF_TRANSBASE   CONNECTED TO MODEL GWF_TRANSBASE    PACKAGE WEL-1            ON UNIT   1026 AT TIME STEP      9, STRESS PERIOD      2
 UBDSV06 SAVING              CHD IN MODEL GWF_TRANSBASE    PACKAGE GWF_TRANSBASE   CONNECTED TO MODEL GWF_TRANSBASE    PACKAGE CHD-1            ON UNIT   1026 AT TIME STEP      9, STRESS PERIOD      2

 HEAD WILL BE SAVED ON UNIT 1027 AT END OF TIME STEP    9, STRESS PERIOD    2

end timestep


start timestep kper="2" kstp="10" mode="normal"

 UBDSV1 SAVING           STO-SS ON UNIT   1026 AT TIME STEP     10, STRESS PERIOD      2
 UBDSV1 SAVING           STO-SY ON UNIT   1026 AT TIME STEP     10, STRESS PERIOD      2
 UBDSV1 SAVING     FLOW-JA-FACE ON UNIT   1026 AT TIME STEP     10, STRESS PERIOD      2
 UBDSV06 SAVING       DATA-SPDIS IN MODEL GWF_TRANSBASE    PACKAGE NPF             CONNECTED TO MODEL GWF_TRANSBASE    PACKAGE NPF              ON UNIT   1026 AT TIME STEP     10, STRESS PERIOD      2
 UBDSV06 SAVING              WEL IN MODEL GWF_TRANSBASE    PACKAGE GWF_TRANSBASE   CONNECTED TO MODEL GWF_TRANSBASE    PACKAGE WEL-1            ON UNIT   1026 AT TIME STEP     10, STRESS PERIOD      2
 UBDSV06 SAVING              CHD IN MODEL GWF_TRANSBASE    PACKAGE GWF_TRANSBASE   CONNECTED TO MODEL GWF_TRANSBASE    PACKAGE CHD-1            ON UNIT   1026 AT TIME STEP     10, STRESS PERIOD      2

 HEAD WILL BE SAVED ON UNIT 1027 AT END OF TIME STEP   10, STRESS PERIOD    2

end timestep


start timestep kper="2" kstp="11" mode="normal"

 UBDSV1 SAVING           STO-SS ON UNIT   1026 AT TIME STEP     11, STRESS PERIOD      2
 UBDSV1 SAVING           STO-SY ON UNIT   1026 AT TIME STEP     11, STRESS PERIOD      2
 UBDSV1 SAVING     FLOW-JA-FACE ON UNIT   1026 AT TIME STEP     11, STRESS PERIOD      2
 UBDSV06 SAVING       DATA-SPDIS IN MODEL GWF_TRANSBASE    PACKAGE NPF             CONNECTED TO MODEL GWF_TRANSBASE    PACKAGE NPF              ON UNIT   1026 AT TIME STEP     11, STRESS PERIOD      2
 UBDSV06 SAVING              WEL IN MODEL GWF_TRANSBASE    PACKAGE GWF_TRANSBASE   CONNECTED TO MODEL GWF_TRANSBASE    PACKAGE WEL-1            ON UNIT   1026 AT TIME STEP     11, STRESS PERIOD      2
 UBDSV06 SAVING              CHD IN MODEL GWF_TRANSBASE    PACKAGE GWF_TRANSBASE   CONNECTED TO MODEL GWF_TRANSBASE    PACKAGE CHD-1            ON UNIT   1026 AT TIME STEP     11, STRESS PERIOD      2

 HEAD WILL BE SAVED ON UNIT 1027 AT END OF TIME STEP   11, STRESS PERIOD    2

end timestep


start timestep kper="2" kstp="12" mode="normal"

 UBDSV1 SAVING           STO-SS ON UNIT   1026 AT TIME STEP     12, STRESS PERIOD      2
 UBDSV1 SAVING           STO-SY ON UNIT   1026 AT TIME STEP     12, STRESS PERIOD      2
 UBDSV1 SAVING     FLOW-JA-FACE ON UNIT   1026 AT TIME STEP     12, STRESS PERIOD      2
 UBDSV06 SAVING       DATA-SPDIS IN MODEL GWF_TRANSBASE    PACKAGE NPF             CONNECTED TO MODEL GWF_TRANSBASE    PACKAGE NPF              ON UNIT   1026 AT TIME STEP     12, STRESS PERIOD      2
 UBDSV06 SAVING              WEL IN MODEL GWF_TRANSBASE    PACKAGE GWF_TRANSBASE   CONNECTED TO MODEL GWF_TRANSBASE    PACKAGE WEL-1            ON UNIT   1026 AT TIME STEP     12, STRESS PERIOD      2
 UBDSV06 SAVING              CHD IN MODEL GWF_TRANSBASE    PACKAGE GWF_TRANSBASE   CONNECTED TO MODEL GWF_TRANSBASE    PACKAGE CHD-1            ON UNIT   1026 AT TIME STEP     12, STRESS PERIOD      2

 HEAD WILL BE SAVED ON UNIT 1027 AT END OF TIME STEP   12, STRESS PERIOD    2

end timestep


start timestep kper="2" kstp="13" mode="normal"

 UBDSV1 SAVING           STO-SS ON UNIT   1026 AT TIME STEP     13, STRESS PERIOD      2
 UBDSV1 SAVING           STO-SY ON UNIT   1026 AT TIME STEP     13, STRESS PERIOD      2
 UBDSV1 SAVING     FLOW-JA-FACE ON UNIT   1026 AT TIME STEP     13, STRESS PERIOD      2
 UBDSV06 SAVING       DATA-SPDIS IN MODEL GWF_TRANSBASE    PACKAGE NPF             CONNECTED TO MODEL GWF_TRANSBASE    PACKAGE NPF              ON UNIT   1026 AT TIME STEP     13, STRESS PERIOD      2
 UBDSV06 SAVING              WEL IN MODEL GWF_TRANSBASE    PACKAGE GWF_TRANSBASE   CONNECTED TO MODEL GWF_TRANSBASE    PACKAGE WEL-1            ON UNIT   1026 AT TIME STEP     13, STRESS PERIOD      2
 UBDSV06 SAVING              CHD IN MODEL GWF_TRANSBASE    PACKAGE GWF_TRANSBASE   CONNECTED TO MODEL GWF_TRANSBASE    PACKAGE CHD-1            ON UNIT   1026 AT TIME STEP     13, STRESS PERIOD      2

 HEAD WILL BE SAVED ON UNIT 1027 AT END OF TIME STEP   13, STRESS PERIOD    2

end timestep


start timestep kper="2" kstp="14" mode="normal"

 UBDSV1 SAVING           STO-SS ON UNIT   1026 AT TIME STEP     14, STRESS PERIOD      2
 UBDSV1 SAVING           STO-SY ON UNIT   1026 AT TIME STEP     14, STRESS PERIOD      2
 UBDSV1 SAVING     FLOW-JA-FACE ON UNIT   1026 AT TIME STEP     14, STRESS PERIOD      2
 UBDSV06 SAVING       DATA-SPDIS IN MODEL GWF_TRANSBASE    PACKAGE NPF             CONNECTED TO MODEL GWF_TRANSBASE    PACKAGE NPF              ON UNIT   1026 AT TIME STEP     14, STRESS PERIOD      2
 UBDSV06 SAVING              WEL IN MODEL GWF_TRANSBASE    PACKAGE GWF_TRANSBASE   CONNECTED TO MODEL GWF_TRANSBASE    PACKAGE WEL-1            ON UNIT   1026 AT TIME STEP     14, STRESS PERIOD      2
 UBDSV06 SAVING              CHD IN MODEL GWF_TRANSBASE    PACKAGE GWF_TRANSBASE   CONNECTED TO MODEL GWF_TRANSBASE    PACKAGE CHD-1            ON UNIT   1026 AT TIME STEP     14, STRESS PERIOD      2

 HEAD WILL BE SAVED ON UNIT 1027 AT END OF TIME STEP   14, STRESS PERIOD    2

end timestep


start timestep kper="2" kstp="15" mode="normal"

 UBDSV1 SAVING           STO-SS ON UNIT   1026 AT TIME STEP     15, STRESS PERIOD      2
 UBDSV1 SAVING           STO-SY ON UNIT   1026 AT TIME STEP     15, STRESS PERIOD      2
 UBDSV1 SAVING     FLOW-JA-FACE ON UNIT   1026 AT TIME STEP     15, STRESS PERIOD      2
 UBDSV06 SAVING       DATA-SPDIS IN MODEL GWF_TRANSBASE    PACKAGE NPF             CONNECTED TO MODEL GWF_TRANSBASE    PACKAGE NPF              ON UNIT   1026 AT TIME STEP     15, STRESS PERIOD      2
 UBDSV06 SAVING              WEL IN MODEL GWF_TRANSBASE    PACKAGE GWF_TRANSBASE   CONNECTED TO MODEL GWF_TRANSBASE    PACKAGE WEL-1            ON UNIT   1026 AT TIME STEP     15, STRESS PERIOD      2
 UBDSV06 SAVING              CHD IN MODEL GWF_TRANSBASE    PACKAGE GWF_TRANSBASE   CONNECTED TO MODEL GWF_TRANSBASE    PACKAGE CHD-1            ON UNIT   1026 AT TIME STEP     15, STRESS PERIOD      2

 HEAD WILL BE SAVED ON UNIT 1027 AT END OF TIME STEP   15, STRESS PERIOD    2

end timestep


start timestep kper="2" kstp="16" mode="normal"

 UBDSV1 SAVING           STO-SS ON UNIT   1026 AT TIME STEP     16, STRESS PERIOD      2
 UBDSV1 SAVING           STO-SY ON UNIT   1026 AT TIME STEP     16, STRESS PERIOD      2
 UBDSV1 SAVING     FLOW-JA-FACE ON UNIT   1026 AT TIME STEP     16, STRESS PERIOD      2
 UBDSV06 SAVING       DATA-SPDIS IN MODEL GWF_TRANSBASE    PACKAGE NPF             CONNECTED TO MODEL GWF_TRANSBASE    PACKAGE NPF              ON UNIT   1026 AT TIME STEP     16, STRESS PERIOD      2
 UBDSV06 SAVING              WEL IN MODEL GWF_TRANSBASE    PACKAGE GWF_TRANSBASE   CONNECTED TO MODEL GWF_TRANSBASE    PACKAGE WEL-1            ON UNIT   1026 AT TIME STEP     16, STRESS PERIOD      2
 UBDSV06 SAVING              CHD IN MODEL GWF_TRANSBASE    PACKAGE GWF_TRANSBASE   CONNECTED TO MODEL GWF_TRANSBASE    PACKAGE CHD-1            ON UNIT   1026 AT TIME STEP     16, STRESS PERIOD      2

 HEAD WILL BE SAVED ON UNIT 1027 AT END OF TIME STEP   16, STRESS PERIOD    2

end timestep


start timestep kper="2" kstp="17" mode="normal"

 UBDSV1 SAVING           STO-SS ON UNIT   1026 AT TIME STEP     17, STRESS PERIOD      2
 UBDSV1 SAVING           STO-SY ON UNIT   1026 AT TIME STEP     17, STRESS PERIOD      2
 UBDSV1 SAVING     FLOW-JA-FACE ON UNIT   1026 AT TIME STEP     17, STRESS PERIOD      2
 UBDSV06 SAVING       DATA-SPDIS IN MODEL GWF_TRANSBASE    PACKAGE NPF             CONNECTED TO MODEL GWF_TRANSBASE    PACKAGE NPF              ON UNIT   1026 AT TIME STEP     17, STRESS PERIOD      2
 UBDSV06 SAVING              WEL IN MODEL GWF_TRANSBASE    PACKAGE GWF_TRANSBASE   CONNECTED TO MODEL GWF_TRANSBASE    PACKAGE WEL-1            ON UNIT   1026 AT TIME STEP     17, STRESS PERIOD      2
 UBDSV06 SAVING              CHD IN MODEL GWF_TRANSBASE    PACKAGE GWF_TRANSBASE   CONNECTED TO MODEL GWF_TRANSBASE    PACKAGE CHD-1            ON UNIT   1026 AT TIME STEP     17, STRESS PERIOD      2

 HEAD WILL BE SAVED ON UNIT 1027 AT END OF TIME STEP   17, STRESS PERIOD    2

end timestep


start timestep kper="2" kstp="18" mode="normal"

 UBDSV1 SAVING           STO-SS ON UNIT   1026 AT TIME STEP     18, STRESS PERIOD      2
 UBDSV1 SAVING           STO-SY ON UNIT   1026 AT TIME STEP     18, STRESS PERIOD      2
 UBDSV1 SAVING     FLOW-JA-FACE ON UNIT   1026 AT TIME STEP     18, STRESS PERIOD      2
 UBDSV06 SAVING       DATA-SPDIS IN MODEL GWF_TRANSBASE    PACKAGE NPF             CONNECTED TO MODEL GWF_TRANSBASE    PACKAGE NPF              ON UNIT   1026 AT TIME STEP     18, STRESS PERIOD      2
 UBDSV06 SAVING              WEL IN MODEL GWF_TRANSBASE    PACKAGE GWF_TRANSBASE   CONNECTED TO MODEL GWF_TRANSBASE    PACKAGE WEL-1            ON UNIT   1026 AT TIME STEP     18, STRESS PERIOD      2
 UBDSV06 SAVING              CHD IN MODEL GWF_TRANSBASE    PACKAGE GWF_TRANSBASE   CONNECTED TO MODEL GWF_TRANSBASE    PACKAGE CHD-1            ON UNIT   1026 AT TIME STEP     18, STRESS PERIOD      2

 HEAD WILL BE SAVED ON UNIT 1027 AT END OF TIME STEP   18, STRESS PERIOD    2

end timestep


start timestep kper="2" kstp="19" mode="normal"

 UBDSV1 SAVING           STO-SS ON UNIT   1026 AT TIME STEP     19, STRESS PERIOD      2
 UBDSV1 SAVING           STO-SY ON UNIT   1026 AT TIME STEP     19, STRESS PERIOD      2
 UBDSV1 SAVING     FLOW-JA-FACE ON UNIT   1026 AT TIME STEP     19, STRESS PERIOD      2
 UBDSV06 SAVING       DATA-SPDIS IN MODEL GWF_TRANSBASE    PACKAGE NPF             CONNECTED TO MODEL GWF_TRANSBASE    PACKAGE NPF              ON UNIT   1026 AT TIME STEP     19, STRESS PERIOD      2
 UBDSV06 SAVING              WEL IN MODEL GWF_TRANSBASE    PACKAGE GWF_TRANSBASE   CONNECTED TO MODEL GWF_TRANSBASE    PACKAGE WEL-1            ON UNIT   1026 AT TIME STEP     19, STRESS PERIOD      2
 UBDSV06 SAVING              CHD IN MODEL GWF_TRANSBASE    PACKAGE GWF_TRANSBASE   CONNECTED TO MODEL GWF_TRANSBASE    PACKAGE CHD-1            ON UNIT   1026 AT TIME STEP     19, STRESS PERIOD      2

 HEAD WILL BE SAVED ON UNIT 1027 AT END OF TIME STEP   19, STRESS PERIOD    2

end timestep


start timestep kper="2" kstp="20" mode="normal"

 UBDSV1 SAVING           STO-SS ON UNIT   1026 AT TIME STEP     20, STRESS PERIOD      2
 UBDSV1 SAVING           STO-SY ON UNIT   1026 AT TIME STEP     20, STRESS PERIOD      2
 UBDSV1 SAVING     FLOW-JA-FACE ON UNIT   1026 AT TIME STEP     20, STRESS PERIOD      2
 UBDSV06 SAVING       DATA-SPDIS IN MODEL GWF_TRANSBASE    PACKAGE NPF             CONNECTED TO MODEL GWF_TRANSBASE    PACKAGE NPF              ON UNIT   1026 AT TIME STEP     20, STRESS PERIOD      2
 UBDSV06 SAVING              WEL IN MODEL GWF_TRANSBASE    PACKAGE GWF_TRANSBASE   CONNECTED TO MODEL GWF_TRANSBASE    PACKAGE WEL-1            ON UNIT   1026 AT TIME STEP     20, STRESS PERIOD      2
 UBDSV06 SAVING              CHD IN MODEL GWF_TRANSBASE    PACKAGE GWF_TRANSBASE   CONNECTED TO MODEL GWF_TRANSBASE    PACKAGE CHD-1            ON UNIT   1026 AT TIME STEP     20, STRESS PERIOD      2

 HEAD WILL BE SAVED ON UNIT 1027 AT END OF TIME STEP   20, STRESS PERIOD    2

end timestep


start timestep kper="2" kstp="21" mode="normal"

 UBDSV1 SAVING           STO-SS ON UNIT   1026 AT TIME STEP     21, STRESS PERIOD      2
 UBDSV1 SAVING           STO-SY ON UNIT   1026 AT TIME STEP     21, STRESS PERIOD      2
 UBDSV1 SAVING     FLOW-JA-FACE ON UNIT   1026 AT TIME STEP     21, STRESS PERIOD      2
 UBDSV06 SAVING       DATA-SPDIS IN MODEL GWF_TRANSBASE    PACKAGE NPF             CONNECTED TO MODEL GWF_TRANSBASE    PACKAGE NPF              ON UNIT   1026 AT TIME STEP     21, STRESS PERIOD      2
 UBDSV06 SAVING              WEL IN MODEL GWF_TRANSBASE    PACKAGE GWF_TRANSBASE   CONNECTED TO MODEL GWF_TRANSBASE    PACKAGE WEL-1            ON UNIT   1026 AT TIME STEP     21, STRESS PERIOD      2
 UBDSV06 SAVING              CHD IN MODEL GWF_TRANSBASE    PACKAGE GWF_TRANSBASE   CONNECTED TO MODEL GWF_TRANSBASE    PACKAGE CHD-1            ON UNIT   1026 AT TIME STEP     21, STRESS PERIOD      2

 HEAD WILL BE SAVED ON UNIT 1027 AT END OF TIME STEP   21, STRESS PERIOD    2

end timestep


start timestep kper="2" kstp="22" mode="normal"

 UBDSV1 SAVING           STO-SS ON UNIT   1026 AT TIME STEP     22, STRESS PERIOD      2
 UBDSV1 SAVING           STO-SY ON UNIT   1026 AT TIME STEP     22, STRESS PERIOD      2
 UBDSV1 SAVING     FLOW-JA-FACE ON UNIT   1026 AT TIME STEP     22, STRESS PERIOD      2
 UBDSV06 SAVING       DATA-SPDIS IN MODEL GWF_TRANSBASE    PACKAGE NPF             CONNECTED TO MODEL GWF_TRANSBASE    PACKAGE NPF              ON UNIT   1026 AT TIME STEP     22, STRESS PERIOD      2
 UBDSV06 SAVING              WEL IN MODEL GWF_TRANSBASE    PACKAGE GWF_TRANSBASE   CONNECTED TO MODEL GWF_TRANSBASE    PACKAGE WEL-1            ON UNIT   1026 AT TIME STEP     22, STRESS PERIOD      2
 UBDSV06 SAVING              CHD IN MODEL GWF_TRANSBASE    PACKAGE GWF_TRANSBASE   CONNECTED TO MODEL GWF_TRANSBASE    PACKAGE CHD-1            ON UNIT   1026 AT TIME STEP     22, STRESS PERIOD      2

 HEAD WILL BE SAVED ON UNIT 1027 AT END OF TIME STEP   22, STRESS PERIOD    2

end timestep


start timestep kper="2" kstp="23" mode="normal"

 UBDSV1 SAVING           STO-SS ON UNIT   1026 AT TIME STEP     23, STRESS PERIOD      2
 UBDSV1 SAVING           STO-SY ON UNIT   1026 AT TIME STEP     23, STRESS PERIOD      2
 UBDSV1 SAVING     FLOW-JA-FACE ON UNIT   1026 AT TIME STEP     23, STRESS PERIOD      2
 UBDSV06 SAVING       DATA-SPDIS IN MODEL GWF_TRANSBASE    PACKAGE NPF             CONNECTED TO MODEL GWF_TRANSBASE    PACKAGE NPF              ON UNIT   1026 AT TIME STEP     23, STRESS PERIOD      2
 UBDSV06 SAVING              WEL IN MODEL GWF_TRANSBASE    PACKAGE GWF_TRANSBASE   CONNECTED TO MODEL GWF_TRANSBASE    PACKAGE WEL-1            ON UNIT   1026 AT TIME STEP     23, STRESS PERIOD      2
 UBDSV06 SAVING              CHD IN MODEL GWF_TRANSBASE    PACKAGE GWF_TRANSBASE   CONNECTED TO MODEL GWF_TRANSBASE    PACKAGE CHD-1            ON UNIT   1026 AT TIME STEP     23, STRESS PERIOD      2

 HEAD WILL BE SAVED ON UNIT 1027 AT END OF TIME STEP   23, STRESS PERIOD    2

end timestep


start timestep kper="2" kstp="24" mode="normal"

 UBDSV1 SAVING           STO-SS ON UNIT   1026 AT TIME STEP     24, STRESS PERIOD      2
 UBDSV1 SAVING           STO-SY ON UNIT   1026 AT TIME STEP     24, STRESS PERIOD      2
 UBDSV1 SAVING     FLOW-JA-FACE ON UNIT   1026 AT TIME STEP     24, STRESS PERIOD      2
 UBDSV06 SAVING       DATA-SPDIS IN MODEL GWF_TRANSBASE    PACKAGE NPF             CONNECTED TO MODEL GWF_TRANSBASE    PACKAGE NPF              ON UNIT   1026 AT TIME STEP     24, STRESS PERIOD      2
 UBDSV06 SAVING              WEL IN MODEL GWF_TRANSBASE    PACKAGE GWF_TRANSBASE   CONNECTED TO MODEL GWF_TRANSBASE    PACKAGE WEL-1            ON UNIT   1026 AT TIME STEP     24, STRESS PERIOD      2
 UBDSV06 SAVING              CHD IN MODEL GWF_TRANSBASE    PACKAGE GWF_TRANSBASE   CONNECTED TO MODEL GWF_TRANSBASE    PACKAGE CHD-1            ON UNIT   1026 AT TIME STEP     24, STRESS PERIOD      2

 HEAD WILL BE SAVED ON UNIT 1027 AT END OF TIME STEP   24, STRESS PERIOD    2

end timestep


start timestep kper="2" kstp="25" mode="normal"

 UBDSV1 SAVING           STO-SS ON UNIT   1026 AT TIME STEP     25, STRESS PERIOD      2
 UBDSV1 SAVING           STO-SY ON UNIT   1026 AT TIME STEP     25, STRESS PERIOD      2
 UBDSV1 SAVING     FLOW-JA-FACE ON UNIT   1026 AT TIME STEP     25, STRESS PERIOD      2
 UBDSV06 SAVING       DATA-SPDIS IN MODEL GWF_TRANSBASE    PACKAGE NPF             CONNECTED TO MODEL GWF_TRANSBASE    PACKAGE NPF              ON UNIT   1026 AT TIME STEP     25, STRESS PERIOD      2
 UBDSV06 SAVING              WEL IN MODEL GWF_TRANSBASE    PACKAGE GWF_TRANSBASE   CONNECTED TO MODEL GWF_TRANSBASE    PACKAGE WEL-1            ON UNIT   1026 AT TIME STEP     25, STRESS PERIOD      2
 UBDSV06 SAVING              CHD IN MODEL GWF_TRANSBASE    PACKAGE GWF_TRANSBASE   CONNECTED TO MODEL GWF_TRANSBASE    PACKAGE CHD-1            ON UNIT   1026 AT TIME STEP     25, STRESS PERIOD      2

 HEAD WILL BE SAVED ON UNIT 1027 AT END OF TIME STEP   25, STRESS PERIOD    2

end timestep


start timestep kper="2" kstp="26" mode="normal"

 UBDSV1 SAVING           STO-SS ON UNIT   1026 AT TIME STEP     26, STRESS PERIOD      2
 UBDSV1 SAVING           STO-SY ON UNIT   1026 AT TIME STEP     26, STRESS PERIOD      2
 UBDSV1 SAVING     FLOW-JA-FACE ON UNIT   1026 AT TIME STEP     26, STRESS PERIOD      2
 UBDSV06 SAVING       DATA-SPDIS IN MODEL GWF_TRANSBASE    PACKAGE NPF             CONNECTED TO MODEL GWF_TRANSBASE    PACKAGE NPF              ON UNIT   1026 AT TIME STEP     26, STRESS PERIOD      2
 UBDSV06 SAVING              WEL IN MODEL GWF_TRANSBASE    PACKAGE GWF_TRANSBASE   CONNECTED TO MODEL GWF_TRANSBASE    PACKAGE WEL-1            ON UNIT   1026 AT TIME STEP     26, STRESS PERIOD      2
 UBDSV06 SAVING              CHD IN MODEL GWF_TRANSBASE    PACKAGE GWF_TRANSBASE   CONNECTED TO MODEL GWF_TRANSBASE    PACKAGE CHD-1            ON UNIT   1026 AT TIME STEP     26, STRESS PERIOD      2

 HEAD WILL BE SAVED ON UNIT 1027 AT END OF TIME STEP   26, STRESS PERIOD    2

end timestep


start timestep kper="2" kstp="27" mode="normal"

 UBDSV1 SAVING           STO-SS ON UNIT   1026 AT TIME STEP     27, STRESS PERIOD      2
 UBDSV1 SAVING           STO-SY ON UNIT   1026 AT TIME STEP     27, STRESS PERIOD      2
 UBDSV1 SAVING     FLOW-JA-FACE ON UNIT   1026 AT TIME STEP     27, STRESS PERIOD      2
 UBDSV06 SAVING       DATA-SPDIS IN MODEL GWF_TRANSBASE    PACKAGE NPF             CONNECTED TO MODEL GWF_TRANSBASE    PACKAGE NPF              ON UNIT   1026 AT TIME STEP     27, STRESS PERIOD      2
 UBDSV06 SAVING              WEL IN MODEL GWF_TRANSBASE    PACKAGE GWF_TRANSBASE   CONNECTED TO MODEL GWF_TRANSBASE    PACKAGE WEL-1            ON UNIT   1026 AT TIME STEP     27, STRESS PERIOD      2
 UBDSV06 SAVING              CHD IN MODEL GWF_TRANSBASE    PACKAGE GWF_TRANSBASE   CONNECTED TO MODEL GWF_TRANSBASE    PACKAGE CHD-1            ON UNIT   1026 AT TIME STEP     27, STRESS PERIOD      2

 HEAD WILL BE SAVED ON UNIT 1027 AT END OF TIME STEP   27, STRESS PERIOD    2

end timestep


start timestep kper="2" kstp="28" mode="normal"

 UBDSV1 SAVING           STO-SS ON UNIT   1026 AT TIME STEP     28, STRESS PERIOD      2
 UBDSV1 SAVING           STO-SY ON UNIT   1026 AT TIME STEP     28, STRESS PERIOD      2
 UBDSV1 SAVING     FLOW-JA-FACE ON UNIT   1026 AT TIME STEP     28, STRESS PERIOD      2
 UBDSV06 SAVING       DATA-SPDIS IN MODEL GWF_TRANSBASE    PACKAGE NPF             CONNECTED TO MODEL GWF_TRANSBASE    PACKAGE NPF              ON UNIT   1026 AT TIME STEP     28, STRESS PERIOD      2
 UBDSV06 SAVING              WEL IN MODEL GWF_TRANSBASE    PACKAGE GWF_TRANSBASE   CONNECTED TO MODEL GWF_TRANSBASE    PACKAGE WEL-1            ON UNIT   1026 AT TIME STEP     28, STRESS PERIOD      2
 UBDSV06 SAVING              CHD IN MODEL GWF_TRANSBASE    PACKAGE GWF_TRANSBASE   CONNECTED TO MODEL GWF_TRANSBASE    PACKAGE CHD-1            ON UNIT   1026 AT TIME STEP     28, STRESS PERIOD      2

 HEAD WILL BE SAVED ON UNIT 1027 AT END OF TIME STEP   28, STRESS PERIOD    2

end timestep


start timestep kper="2" kstp="29" mode="normal"

 UBDSV1 SAVING           STO-SS ON UNIT   1026 AT TIME STEP     29, STRESS PERIOD      2
 UBDSV1 SAVING           STO-SY ON UNIT   1026 AT TIME STEP     29, STRESS PERIOD      2
 UBDSV1 SAVING     FLOW-JA-FACE ON UNIT   1026 AT TIME STEP     29, STRESS PERIOD      2
 UBDSV06 SAVING       DATA-SPDIS IN MODEL GWF_TRANSBASE    PACKAGE NPF             CONNECTED TO MODEL GWF_TRANSBASE    PACKAGE NPF              ON UNIT   1026 AT TIME STEP     29, STRESS PERIOD      2
 UBDSV06 SAVING              WEL IN MODEL GWF_TRANSBASE    PACKAGE GWF_TRANSBASE   CONNECTED TO MODEL GWF_TRANSBASE    PACKAGE WEL-1            ON UNIT   1026 AT TIME STEP     29, STRESS PERIOD      2
 UBDSV06 SAVING              CHD IN MODEL GWF_TRANSBASE    PACKAGE GWF_TRANSBASE   CONNECTED TO MODEL GWF_TRANSBASE    PACKAGE CHD-1            ON UNIT   1026 AT TIME STEP     29, STRESS PERIOD      2

 HEAD WILL BE SAVED ON UNIT 1027 AT END OF TIME STEP   29, STRESS PERIOD    2

end timestep


start timestep kper="2" kstp="30" mode="normal"

 UBDSV1 SAVING           STO-SS ON UNIT   1026 AT TIME STEP     30, STRESS PERIOD      2
 UBDSV1 SAVING           STO-SY ON UNIT   1026 AT TIME STEP     30, STRESS PERIOD      2
 UBDSV1 SAVING     FLOW-JA-FACE ON UNIT   1026 AT TIME STEP     30, STRESS PERIOD      2
 UBDSV06 SAVING       DATA-SPDIS IN MODEL GWF_TRANSBASE    PACKAGE NPF             CONNECTED TO MODEL GWF_TRANSBASE    PACKAGE NPF              ON UNIT   1026 AT TIME STEP     30, STRESS PERIOD      2
 UBDSV06 SAVING              WEL IN MODEL GWF_TRANSBASE    PACKAGE GWF_TRANSBASE   CONNECTED TO MODEL GWF_TRANSBASE    PACKAGE WEL-1            ON UNIT   1026 AT TIME STEP     30, STRESS PERIOD      2
 UBDSV06 SAVING              CHD IN MODEL GWF_TRANSBASE    PACKAGE GWF_TRANSBASE   CONNECTED TO MODEL GWF_TRANSBASE    PACKAGE CHD-1            ON UNIT   1026 AT TIME STEP     30, STRESS PERIOD      2

 HEAD WILL BE SAVED ON UNIT 1027 AT END OF TIME STEP   30, STRESS PERIOD    2

end timestep


start timestep kper="2" kstp="31" mode="normal"

 UBDSV1 SAVING           STO-SS ON UNIT   1026 AT TIME STEP     31, STRESS PERIOD      2
 UBDSV1 SAVING           STO-SY ON UNIT   1026 AT TIME STEP     31, STRESS PERIOD      2
 UBDSV1 SAVING     FLOW-JA-FACE ON UNIT   1026 AT TIME STEP     31, STRESS PERIOD      2
 UBDSV06 SAVING       DATA-SPDIS IN MODEL GWF_TRANSBASE    PACKAGE NPF             CONNECTED TO MODEL GWF_TRANSBASE    PACKAGE NPF              ON UNIT   1026 AT TIME STEP     31, STRESS PERIOD      2
 UBDSV06 SAVING              WEL IN MODEL GWF_TRANSBASE    PACKAGE GWF_TRANSBASE   CONNECTED TO MODEL GWF_TRANSBASE    PACKAGE WEL-1            ON UNIT   1026 AT TIME STEP     31, STRESS PERIOD      2
 UBDSV06 SAVING              CHD IN MODEL GWF_TRANSBASE    PACKAGE GWF_TRANSBASE   CONNECTED TO MODEL GWF_TRANSBASE    PACKAGE CHD-1            ON UNIT   1026 AT TIME STEP     31, STRESS PERIOD      2

 HEAD WILL BE SAVED ON UNIT 1027 AT END OF TIME STEP   31, STRESS PERIOD    2

end timestep


start timestep kper="2" kstp="32" mode="normal"

 UBDSV1 SAVING           STO-SS ON UNIT   1026 AT TIME STEP     32, STRESS PERIOD      2
 UBDSV1 SAVING           STO-SY ON UNIT   1026 AT TIME STEP     32, STRESS PERIOD      2
 UBDSV1 SAVING     FLOW-JA-FACE ON UNIT   1026 AT TIME STEP     32, STRESS PERIOD      2
 UBDSV06 SAVING       DATA-SPDIS IN MODEL GWF_TRANSBASE    PACKAGE NPF             CONNECTED TO MODEL GWF_TRANSBASE    PACKAGE NPF              ON UNIT   1026 AT TIME STEP     32, STRESS PERIOD      2
 UBDSV06 SAVING              WEL IN MODEL GWF_TRANSBASE    PACKAGE GWF_TRANSBASE   CONNECTED TO MODEL GWF_TRANSBASE    PACKAGE WEL-1            ON UNIT   1026 AT TIME STEP     32, STRESS PERIOD      2
 UBDSV06 SAVING              CHD IN MODEL GWF_TRANSBASE    PACKAGE GWF_TRANSBASE   CONNECTED TO MODEL GWF_TRANSBASE    PACKAGE CHD-1            ON UNIT   1026 AT TIME STEP     32, STRESS PERIOD      2

 HEAD WILL BE SAVED ON UNIT 1027 AT END OF TIME STEP   32, STRESS PERIOD    2

end timestep


start timestep kper="2" kstp="33" mode="normal"

 UBDSV1 SAVING           STO-SS ON UNIT   1026 AT TIME STEP     33, STRESS PERIOD      2
 UBDSV1 SAVING           STO-SY ON UNIT   1026 AT TIME STEP     33, STRESS PERIOD      2
 UBDSV1 SAVING     FLOW-JA-FACE ON UNIT   1026 AT TIME STEP     33, STRESS PERIOD      2
 UBDSV06 SAVING       DATA-SPDIS IN MODEL GWF_TRANSBASE    PACKAGE NPF             CONNECTED TO MODEL GWF_TRANSBASE    PACKAGE NPF              ON UNIT   1026 AT TIME STEP     33, STRESS PERIOD      2
 UBDSV06 SAVING              WEL IN MODEL GWF_TRANSBASE    PACKAGE GWF_TRANSBASE   CONNECTED TO MODEL GWF_TRANSBASE    PACKAGE WEL-1            ON UNIT   1026 AT TIME STEP     33, STRESS PERIOD      2
 UBDSV06 SAVING              CHD IN MODEL GWF_TRANSBASE    PACKAGE GWF_TRANSBASE   CONNECTED TO MODEL GWF_TRANSBASE    PACKAGE CHD-1            ON UNIT   1026 AT TIME STEP     33, STRESS PERIOD      2

 HEAD WILL BE SAVED ON UNIT 1027 AT END OF TIME STEP   33, STRESS PERIOD    2

end timestep


start timestep kper="2" kstp="34" mode="normal"

 UBDSV1 SAVING           STO-SS ON UNIT   1026 AT TIME STEP     34, STRESS PERIOD      2
 UBDSV1 SAVING           STO-SY ON UNIT   1026 AT TIME STEP     34, STRESS PERIOD      2
 UBDSV1 SAVING     FLOW-JA-FACE ON UNIT   1026 AT TIME STEP     34, STRESS PERIOD      2
 UBDSV06 SAVING       DATA-SPDIS IN MODEL GWF_TRANSBASE    PACKAGE NPF             CONNECTED TO MODEL GWF_TRANSBASE    PACKAGE NPF              ON UNIT   1026 AT TIME STEP     34, STRESS PERIOD      2
 UBDSV06 SAVING              WEL IN MODEL GWF_TRANSBASE    PACKAGE GWF_TRANSBASE   CONNECTED TO MODEL GWF_TRANSBASE    PACKAGE WEL-1            ON UNIT   1026 AT TIME STEP     34, STRESS PERIOD      2
 UBDSV06 SAVING              CHD IN MODEL GWF_TRANSBASE    PACKAGE GWF_TRANSBASE   CONNECTED TO MODEL GWF_TRANSBASE    PACKAGE CHD-1            ON UNIT   1026 AT TIME STEP     34, STRESS PERIOD      2

 HEAD WILL BE SAVED ON UNIT 1027 AT END OF TIME STEP   34, STRESS PERIOD    2

end timestep


start timestep kper="2" kstp="35" mode="normal"

 UBDSV1 SAVING           STO-SS ON UNIT   1026 AT TIME STEP     35, STRESS PERIOD      2
 UBDSV1 SAVING           STO-SY ON UNIT   1026 AT TIME STEP     35, STRESS PERIOD      2
 UBDSV1 SAVING     FLOW-JA-FACE ON UNIT   1026 AT TIME STEP     35, STRESS PERIOD      2
 UBDSV06 SAVING       DATA-SPDIS IN MODEL GWF_TRANSBASE    PACKAGE NPF             CONNECTED TO MODEL GWF_TRANSBASE    PACKAGE NPF              ON UNIT   1026 AT TIME STEP     35, STRESS PERIOD      2
 UBDSV06 SAVING              WEL IN MODEL GWF_TRANSBASE    PACKAGE GWF_TRANSBASE   CONNECTED TO MODEL GWF_TRANSBASE    PACKAGE WEL-1            ON UNIT   1026 AT TIME STEP     35, STRESS PERIOD      2
 UBDSV06 SAVING              CHD IN MODEL GWF_TRANSBASE    PACKAGE GWF_TRANSBASE   CONNECTED TO MODEL GWF_TRANSBASE    PACKAGE CHD-1            ON UNIT   1026 AT TIME STEP     35, STRESS PERIOD      2

 HEAD WILL BE SAVED ON UNIT 1027 AT END OF TIME STEP   35, STRESS PERIOD    2

end timestep


start timestep kper="2" kstp="36" mode="normal"

 UBDSV1 SAVING           STO-SS ON UNIT   1026 AT TIME STEP     36, STRESS PERIOD      2
 UBDSV1 SAVING           STO-SY ON UNIT   1026 AT TIME STEP     36, STRESS PERIOD      2
 UBDSV1 SAVING     FLOW-JA-FACE ON UNIT   1026 AT TIME STEP     36, STRESS PERIOD      2
 UBDSV06 SAVING       DATA-SPDIS IN MODEL GWF_TRANSBASE    PACKAGE NPF             CONNECTED TO MODEL GWF_TRANSBASE    PACKAGE NPF              ON UNIT   1026 AT TIME STEP     36, STRESS PERIOD      2
 UBDSV06 SAVING              WEL IN MODEL GWF_TRANSBASE    PACKAGE GWF_TRANSBASE   CONNECTED TO MODEL GWF_TRANSBASE    PACKAGE WEL-1            ON UNIT   1026 AT TIME STEP     36, STRESS PERIOD      2
 UBDSV06 SAVING              CHD IN MODEL GWF_TRANSBASE    PACKAGE GWF_TRANSBASE   CONNECTED TO MODEL GWF_TRANSBASE    PACKAGE CHD-1            ON UNIT   1026 AT TIME STEP     36, STRESS PERIOD      2

 HEAD WILL BE SAVED ON UNIT 1027 AT END OF TIME STEP   36, STRESS PERIOD    2

end timestep


start timestep kper="2" kstp="37" mode="normal"

 UBDSV1 SAVING           STO-SS ON UNIT   1026 AT TIME STEP     37, STRESS PERIOD      2
 UBDSV1 SAVING           STO-SY ON UNIT   1026 AT TIME STEP     37, STRESS PERIOD      2
 UBDSV1 SAVING     FLOW-JA-FACE ON UNIT   1026 AT TIME STEP     37, STRESS PERIOD      2
 UBDSV06 SAVING       DATA-SPDIS IN MODEL GWF_TRANSBASE    PACKAGE NPF             CONNECTED TO MODEL GWF_TRANSBASE    PACKAGE NPF              ON UNIT   1026 AT TIME STEP     37, STRESS PERIOD      2
 UBDSV06 SAVING              WEL IN MODEL GWF_TRANSBASE    PACKAGE GWF_TRANSBASE   CONNECTED TO MODEL GWF_TRANSBASE    PACKAGE WEL-1            ON UNIT   1026 AT TIME STEP     37, STRESS PERIOD      2
 UBDSV06 SAVING              CHD IN MODEL GWF_TRANSBASE    PACKAGE GWF_TRANSBASE   CONNECTED TO MODEL GWF_TRANSBASE    PACKAGE CHD-1            ON UNIT   1026 AT TIME STEP     37, STRESS PERIOD      2

 HEAD WILL BE SAVED ON UNIT 1027 AT END OF TIME STEP   37, STRESS PERIOD    2

end timestep


start timestep kper="2" kstp="38" mode="normal"

 UBDSV1 SAVING           STO-SS ON UNIT   1026 AT TIME STEP     38, STRESS PERIOD      2
 UBDSV1 SAVING           STO-SY ON UNIT   1026 AT TIME STEP     38, STRESS PERIOD      2
 UBDSV1 SAVING     FLOW-JA-FACE ON UNIT   1026 AT TIME STEP     38, STRESS PERIOD      2
 UBDSV06 SAVING       DATA-SPDIS IN MODEL GWF_TRANSBASE    PACKAGE NPF             CONNECTED TO MODEL GWF_TRANSBASE    PACKAGE NPF              ON UNIT   1026 AT TIME STEP     38, STRESS PERIOD      2
 UBDSV06 SAVING              WEL IN MODEL GWF_TRANSBASE    PACKAGE GWF_TRANSBASE   CONNECTED TO MODEL GWF_TRANSBASE    PACKAGE WEL-1            ON UNIT   1026 AT TIME STEP     38, STRESS PERIOD      2
 UBDSV06 SAVING              CHD IN MODEL GWF_TRANSBASE    PACKAGE GWF_TRANSBASE   CONNECTED TO MODEL GWF_TRANSBASE    PACKAGE CHD-1            ON UNIT   1026 AT TIME STEP     38, STRESS PERIOD      2

 HEAD WILL BE SAVED ON UNIT 1027 AT END OF TIME STEP   38, STRESS PERIOD    2

end timestep


start timestep kper="2" kstp="39" mode="normal"

 UBDSV1 SAVING           STO-SS ON UNIT   1026 AT TIME STEP     39, STRESS PERIOD      2
 UBDSV1 SAVING           STO-SY ON UNIT   1026 AT TIME STEP     39, STRESS PERIOD      2
 UBDSV1 SAVING     FLOW-JA-FACE ON UNIT   1026 AT TIME STEP     39, STRESS PERIOD      2
 UBDSV06 SAVING       DATA-SPDIS IN MODEL GWF_TRANSBASE    PACKAGE NPF             CONNECTED TO MODEL GWF_TRANSBASE    PACKAGE NPF              ON UNIT   1026 AT TIME STEP     39, STRESS PERIOD      2
 UBDSV06 SAVING              WEL IN MODEL GWF_TRANSBASE    PACKAGE GWF_TRANSBASE   CONNECTED TO MODEL GWF_TRANSBASE    PACKAGE WEL-1            ON UNIT   1026 AT TIME STEP     39, STRESS PERIOD      2
 UBDSV06 SAVING              CHD IN MODEL GWF_TRANSBASE    PACKAGE GWF_TRANSBASE   CONNECTED TO MODEL GWF_TRANSBASE    PACKAGE CHD-1            ON UNIT   1026 AT TIME STEP     39, STRESS PERIOD      2

 HEAD WILL BE SAVED ON UNIT 1027 AT END OF TIME STEP   39, STRESS PERIOD    2

end timestep


start timestep kper="2" kstp="40" mode="normal"

 UBDSV1 SAVING           STO-SS ON UNIT   1026 AT TIME STEP     40, STRESS PERIOD      2
 UBDSV1 SAVING           STO-SY ON UNIT   1026 AT TIME STEP     40, STRESS PERIOD      2
 UBDSV1 SAVING     FLOW-JA-FACE ON UNIT   1026 AT TIME STEP     40, STRESS PERIOD      2
 UBDSV06 SAVING       DATA-SPDIS IN MODEL GWF_TRANSBASE    PACKAGE NPF             CONNECTED TO MODEL GWF_TRANSBASE    PACKAGE NPF              ON UNIT   1026 AT TIME STEP     40, STRESS PERIOD      2
 UBDSV06 SAVING              WEL IN MODEL GWF_TRANSBASE    PACKAGE GWF_TRANSBASE   CONNECTED TO MODEL GWF_TRANSBASE    PACKAGE WEL-1            ON UNIT   1026 AT TIME STEP     40, STRESS PERIOD      2
 UBDSV06 SAVING              CHD IN MODEL GWF_TRANSBASE    PACKAGE GWF_TRANSBASE   CONNECTED TO MODEL GWF_TRANSBASE    PACKAGE CHD-1            ON UNIT   1026 AT TIME STEP     40, STRESS PERIOD      2

 HEAD WILL BE SAVED ON UNIT 1027 AT END OF TIME STEP   40, STRESS PERIOD    2

end timestep


start timestep kper="2" kstp="41" mode="normal"

 UBDSV1 SAVING           STO-SS ON UNIT   1026 AT TIME STEP     41, STRESS PERIOD      2
 UBDSV1 SAVING           STO-SY ON UNIT   1026 AT TIME STEP     41, STRESS PERIOD      2
 UBDSV1 SAVING     FLOW-JA-FACE ON UNIT   1026 AT TIME STEP     41, STRESS PERIOD      2
 UBDSV06 SAVING       DATA-SPDIS IN MODEL GWF_TRANSBASE    PACKAGE NPF             CONNECTED TO MODEL GWF_TRANSBASE    PACKAGE NPF              ON UNIT   1026 AT TIME STEP     41, STRESS PERIOD      2
 UBDSV06 SAVING              WEL IN MODEL GWF_TRANSBASE    PACKAGE GWF_TRANSBASE   CONNECTED TO MODEL GWF_TRANSBASE    PACKAGE WEL-1            ON UNIT   1026 AT TIME STEP     41, STRESS PERIOD      2
 UBDSV06 SAVING              CHD IN MODEL GWF_TRANSBASE    PACKAGE GWF_TRANSBASE   CONNECTED TO MODEL GWF_TRANSBASE    PACKAGE CHD-1            ON UNIT   1026 AT TIME STEP     41, STRESS PERIOD      2

 HEAD WILL BE SAVED ON UNIT 1027 AT END OF TIME STEP   41, STRESS PERIOD    2

end timestep


start timestep kper="2" kstp="42" mode="normal"

 UBDSV1 SAVING           STO-SS ON UNIT   1026 AT TIME STEP     42, STRESS PERIOD      2
 UBDSV1 SAVING           STO-SY ON UNIT   1026 AT TIME STEP     42, STRESS PERIOD      2
 UBDSV1 SAVING     FLOW-JA-FACE ON UNIT   1026 AT TIME STEP     42, STRESS PERIOD      2
 UBDSV06 SAVING       DATA-SPDIS IN MODEL GWF_TRANSBASE    PACKAGE NPF             CONNECTED TO MODEL GWF_TRANSBASE    PACKAGE NPF              ON UNIT   1026 AT TIME STEP     42, STRESS PERIOD      2
 UBDSV06 SAVING              WEL IN MODEL GWF_TRANSBASE    PACKAGE GWF_TRANSBASE   CONNECTED TO MODEL GWF_TRANSBASE    PACKAGE WEL-1            ON UNIT   1026 AT TIME STEP     42, STRESS PERIOD      2
 UBDSV06 SAVING              CHD IN MODEL GWF_TRANSBASE    PACKAGE GWF_TRANSBASE   CONNECTED TO MODEL GWF_TRANSBASE    PACKAGE CHD-1            ON UNIT   1026 AT TIME STEP     42, STRESS PERIOD      2

 HEAD WILL BE SAVED ON UNIT 1027 AT END OF TIME STEP   42, STRESS PERIOD    2

end timestep


start timestep kper="2" kstp="43" mode="normal"

 UBDSV1 SAVING           STO-SS ON UNIT   1026 AT TIME STEP     43, STRESS PERIOD      2
 UBDSV1 SAVING           STO-SY ON UNIT   1026 AT TIME STEP     43, STRESS PERIOD      2
 UBDSV1 SAVING     FLOW-JA-FACE ON UNIT   1026 AT TIME STEP     43, STRESS PERIOD      2
 UBDSV06 SAVING       DATA-SPDIS IN MODEL GWF_TRANSBASE    PACKAGE NPF             CONNECTED TO MODEL GWF_TRANSBASE    PACKAGE NPF              ON UNIT   1026 AT TIME STEP     43, STRESS PERIOD      2
 UBDSV06 SAVING              WEL IN MODEL GWF_TRANSBASE    PACKAGE GWF_TRANSBASE   CONNECTED TO MODEL GWF_TRANSBASE    PACKAGE WEL-1            ON UNIT   1026 AT TIME STEP     43, STRESS PERIOD      2
 UBDSV06 SAVING              CHD IN MODEL GWF_TRANSBASE    PACKAGE GWF_TRANSBASE   CONNECTED TO MODEL GWF_TRANSBASE    PACKAGE CHD-1            ON UNIT   1026 AT TIME STEP     43, STRESS PERIOD      2

 HEAD WILL BE SAVED ON UNIT 1027 AT END OF TIME STEP   43, STRESS PERIOD    2

end timestep


start timestep kper="2" kstp="44" mode="normal"

 UBDSV1 SAVING           STO-SS ON UNIT   1026 AT TIME STEP     44, STRESS PERIOD      2
 UBDSV1 SAVING           STO-SY ON UNIT   1026 AT TIME STEP     44, STRESS PERIOD      2
 UBDSV1 SAVING     FLOW-JA-FACE ON UNIT   1026 AT TIME STEP     44, STRESS PERIOD      2
 UBDSV06 SAVING       DATA-SPDIS IN MODEL GWF_TRANSBASE    PACKAGE NPF             CONNECTED TO MODEL GWF_TRANSBASE    PACKAGE NPF              ON UNIT   1026 AT TIME STEP     44, STRESS PERIOD      2
 UBDSV06 SAVING              WEL IN MODEL GWF_TRANSBASE    PACKAGE GWF_TRANSBASE   CONNECTED TO MODEL GWF_TRANSBASE    PACKAGE WEL-1            ON UNIT   1026 AT TIME STEP     44, STRESS PERIOD      2
 UBDSV06 SAVING              CHD IN MODEL GWF_TRANSBASE    PACKAGE GWF_TRANSBASE   CONNECTED TO MODEL GWF_TRANSBASE    PACKAGE CHD-1            ON UNIT   1026 AT TIME STEP     44, STRESS PERIOD      2

 HEAD WILL BE SAVED ON UNIT 1027 AT END OF TIME STEP   44, STRESS PERIOD    2

end timestep


start timestep kper="2" kstp="45" mode="normal"

 UBDSV1 SAVING           STO-SS ON UNIT   1026 AT TIME STEP     45, STRESS PERIOD      2
 UBDSV1 SAVING           STO-SY ON UNIT   1026 AT TIME STEP     45, STRESS PERIOD      2
 UBDSV1 SAVING     FLOW-JA-FACE ON UNIT   1026 AT TIME STEP     45, STRESS PERIOD      2
 UBDSV06 SAVING       DATA-SPDIS IN MODEL GWF_TRANSBASE    PACKAGE NPF             CONNECTED TO MODEL GWF_TRANSBASE    PACKAGE NPF              ON UNIT   1026 AT TIME STEP     45, STRESS PERIOD      2
 UBDSV06 SAVING              WEL IN MODEL GWF_TRANSBASE    PACKAGE GWF_TRANSBASE   CONNECTED TO MODEL GWF_TRANSBASE    PACKAGE WEL-1            ON UNIT   1026 AT TIME STEP     45, STRESS PERIOD      2
 UBDSV06 SAVING              CHD IN MODEL GWF_TRANSBASE    PACKAGE GWF_TRANSBASE   CONNECTED TO MODEL GWF_TRANSBASE    PACKAGE CHD-1            ON UNIT   1026 AT TIME STEP     45, STRESS PERIOD      2

 HEAD WILL BE SAVED ON UNIT 1027 AT END OF TIME STEP   45, STRESS PERIOD    2

end timestep


start timestep kper="2" kstp="46" mode="normal"

 UBDSV1 SAVING           STO-SS ON UNIT   1026 AT TIME STEP     46, STRESS PERIOD      2
 UBDSV1 SAVING           STO-SY ON UNIT   1026 AT TIME STEP     46, STRESS PERIOD      2
 UBDSV1 SAVING     FLOW-JA-FACE ON UNIT   1026 AT TIME STEP     46, STRESS PERIOD      2
 UBDSV06 SAVING       DATA-SPDIS IN MODEL GWF_TRANSBASE    PACKAGE NPF             CONNECTED TO MODEL GWF_TRANSBASE    PACKAGE NPF              ON UNIT   1026 AT TIME STEP     46, STRESS PERIOD      2
 UBDSV06 SAVING              WEL IN MODEL GWF_TRANSBASE    PACKAGE GWF_TRANSBASE   CONNECTED TO MODEL GWF_TRANSBASE    PACKAGE WEL-1            ON UNIT   1026 AT TIME STEP     46, STRESS PERIOD      2
 UBDSV06 SAVING              CHD IN MODEL GWF_TRANSBASE    PACKAGE GWF_TRANSBASE   CONNECTED TO MODEL GWF_TRANSBASE    PACKAGE CHD-1            ON UNIT   1026 AT TIME STEP     46, STRESS PERIOD      2

 HEAD WILL BE SAVED ON UNIT 1027 AT END OF TIME STEP   46, STRESS PERIOD    2

end timestep


start timestep kper="2" kstp="47" mode="normal"

 UBDSV1 SAVING           STO-SS ON UNIT   1026 AT TIME STEP     47, STRESS PERIOD      2
 UBDSV1 SAVING           STO-SY ON UNIT   1026 AT TIME STEP     47, STRESS PERIOD      2
 UBDSV1 SAVING     FLOW-JA-FACE ON UNIT   1026 AT TIME STEP     47, STRESS PERIOD      2
 UBDSV06 SAVING       DATA-SPDIS IN MODEL GWF_TRANSBASE    PACKAGE NPF             CONNECTED TO MODEL GWF_TRANSBASE    PACKAGE NPF              ON UNIT   1026 AT TIME STEP     47, STRESS PERIOD      2
 UBDSV06 SAVING              WEL IN MODEL GWF_TRANSBASE    PACKAGE GWF_TRANSBASE   CONNECTED TO MODEL GWF_TRANSBASE    PACKAGE WEL-1            ON UNIT   1026 AT TIME STEP     47, STRESS PERIOD      2
 UBDSV06 SAVING              CHD IN MODEL GWF_TRANSBASE    PACKAGE GWF_TRANSBASE   CONNECTED TO MODEL GWF_TRANSBASE    PACKAGE CHD-1            ON UNIT   1026 AT TIME STEP     47, STRESS PERIOD      2

 HEAD WILL BE SAVED ON UNIT 1027 AT END OF TIME STEP   47, STRESS PERIOD    2

end timestep


start timestep kper="2" kstp="48" mode="normal"

 UBDSV1 SAVING           STO-SS ON UNIT   1026 AT TIME STEP     48, STRESS PERIOD      2
 UBDSV1 SAVING           STO-SY ON UNIT   1026 AT TIME STEP     48, STRESS PERIOD      2
 UBDSV1 SAVING     FLOW-JA-FACE ON UNIT   1026 AT TIME STEP     48, STRESS PERIOD      2
 UBDSV06 SAVING       DATA-SPDIS IN MODEL GWF_TRANSBASE    PACKAGE NPF             CONNECTED TO MODEL GWF_TRANSBASE    PACKAGE NPF              ON UNIT   1026 AT TIME STEP     48, STRESS PERIOD      2
 UBDSV06 SAVING              WEL IN MODEL GWF_TRANSBASE    PACKAGE GWF_TRANSBASE   CONNECTED TO MODEL GWF_TRANSBASE    PACKAGE WEL-1            ON UNIT   1026 AT TIME STEP     48, STRESS PERIOD      2
 UBDSV06 SAVING              CHD IN MODEL GWF_TRANSBASE    PACKAGE GWF_TRANSBASE   CONNECTED TO MODEL GWF_TRANSBASE    PACKAGE CHD-1            ON UNIT   1026 AT TIME STEP     48, STRESS PERIOD      2

 HEAD WILL BE SAVED ON UNIT 1027 AT END OF TIME STEP   48, STRESS PERIOD    2

end timestep


start timestep kper="2" kstp="49" mode="normal"

 UBDSV1 SAVING           STO-SS ON UNIT   1026 AT TIME STEP     49, STRESS PERIOD      2
 UBDSV1 SAVING           STO-SY ON UNIT   1026 AT TIME STEP     49, STRESS PERIOD      2
 UBDSV1 SAVING     FLOW-JA-FACE ON UNIT   1026 AT TIME STEP     49, STRESS PERIOD      2
 UBDSV06 SAVING       DATA-SPDIS IN MODEL GWF_TRANSBASE    PACKAGE NPF             CONNECTED TO MODEL GWF_TRANSBASE    PACKAGE NPF              ON UNIT   1026 AT TIME STEP     49, STRESS PERIOD      2
 UBDSV06 SAVING              WEL IN MODEL GWF_TRANSBASE    PACKAGE GWF_TRANSBASE   CONNECTED TO MODEL GWF_TRANSBASE    PACKAGE WEL-1            ON UNIT   1026 AT TIME STEP     49, STRESS PERIOD      2
 UBDSV06 SAVING              CHD IN MODEL GWF_TRANSBASE    PACKAGE GWF_TRANSBASE   CONNECTED TO MODEL GWF_TRANSBASE    PACKAGE CHD-1            ON UNIT   1026 AT TIME STEP     49, STRESS PERIOD      2

 HEAD WILL BE SAVED ON UNIT 1027 AT END OF TIME STEP   49, STRESS PERIOD    2

end timestep


start timestep kper="2" kstp="50" mode="normal"

 UBDSV1 SAVING           STO-SS ON UNIT   1026 AT TIME STEP     50, STRESS PERIOD      2
 UBDSV1 SAVING           STO-SY ON UNIT   1026 AT TIME STEP     50, STRESS PERIOD      2
 UBDSV1 SAVING     FLOW-JA-FACE ON UNIT   1026 AT TIME STEP     50, STRESS PERIOD      2
 UBDSV06 SAVING       DATA-SPDIS IN MODEL GWF_TRANSBASE    PACKAGE NPF             CONNECTED TO MODEL GWF_TRANSBASE    PACKAGE NPF              ON UNIT   1026 AT TIME STEP     50, STRESS PERIOD      2
 UBDSV06 SAVING              WEL IN MODEL GWF_TRANSBASE    PACKAGE GWF_TRANSBASE   CONNECTED TO MODEL GWF_TRANSBASE    PACKAGE WEL-1            ON UNIT   1026 AT TIME STEP     50, STRESS PERIOD      2
 UBDSV06 SAVING              CHD IN MODEL GWF_TRANSBASE    PACKAGE GWF_TRANSBASE   CONNECTED TO MODEL GWF_TRANSBASE    PACKAGE CHD-1            ON UNIT   1026 AT TIME STEP     50, STRESS PERIOD      2

 HEAD WILL BE SAVED ON UNIT 1027 AT END OF TIME STEP   50, STRESS PERIOD    2

end timestep


start timestep kper="2" kstp="51" mode="normal"

 UBDSV1 SAVING           STO-SS ON UNIT   1026 AT TIME STEP     51, STRESS PERIOD      2
 UBDSV1 SAVING           STO-SY ON UNIT   1026 AT TIME STEP     51, STRESS PERIOD      2
 UBDSV1 SAVING     FLOW-JA-FACE ON UNIT   1026 AT TIME STEP     51, STRESS PERIOD      2
 UBDSV06 SAVING       DATA-SPDIS IN MODEL GWF_TRANSBASE    PACKAGE NPF             CONNECTED TO MODEL GWF_TRANSBASE    PACKAGE NPF              ON UNIT   1026 AT TIME STEP     51, STRESS PERIOD      2
 UBDSV06 SAVING              WEL IN MODEL GWF_TRANSBASE    PACKAGE GWF_TRANSBASE   CONNECTED TO MODEL GWF_TRANSBASE    PACKAGE WEL-1            ON UNIT   1026 AT TIME STEP     51, STRESS PERIOD      2
 UBDSV06 SAVING              CHD IN MODEL GWF_TRANSBASE    PACKAGE GWF_TRANSBASE   CONNECTED TO MODEL GWF_TRANSBASE    PACKAGE CHD-1            ON UNIT   1026 AT TIME STEP     51, STRESS PERIOD      2

 HEAD WILL BE SAVED ON UNIT 1027 AT END OF TIME STEP   51, STRESS PERIOD    2

end timestep


start timestep kper="2" kstp="52" mode="normal"

 UBDSV1 SAVING           STO-SS ON UNIT   1026 AT TIME STEP     52, STRESS PERIOD      2
 UBDSV1 SAVING           STO-SY ON UNIT   1026 AT TIME STEP     52, STRESS PERIOD      2
 UBDSV1 SAVING     FLOW-JA-FACE ON UNIT   1026 AT TIME STEP     52, STRESS PERIOD      2
 UBDSV06 SAVING       DATA-SPDIS IN MODEL GWF_TRANSBASE    PACKAGE NPF             CONNECTED TO MODEL GWF_TRANSBASE    PACKAGE NPF              ON UNIT   1026 AT TIME STEP     52, STRESS PERIOD      2
 UBDSV06 SAVING              WEL IN MODEL GWF_TRANSBASE    PACKAGE GWF_TRANSBASE   CONNECTED TO MODEL GWF_TRANSBASE    PACKAGE WEL-1            ON UNIT   1026 AT TIME STEP     52, STRESS PERIOD      2
 UBDSV06 SAVING              CHD IN MODEL GWF_TRANSBASE    PACKAGE GWF_TRANSBASE   CONNECTED TO MODEL GWF_TRANSBASE    PACKAGE CHD-1            ON UNIT   1026 AT TIME STEP     52, STRESS PERIOD      2

 HEAD WILL BE SAVED ON UNIT 1027 AT END OF TIME STEP   52, STRESS PERIOD    2

end timestep


start timestep kper="2" kstp="53" mode="normal"

 UBDSV1 SAVING           STO-SS ON UNIT   1026 AT TIME STEP     53, STRESS PERIOD      2
 UBDSV1 SAVING           STO-SY ON UNIT   1026 AT TIME STEP     53, STRESS PERIOD      2
 UBDSV1 SAVING     FLOW-JA-FACE ON UNIT   1026 AT TIME STEP     53, STRESS PERIOD      2
 UBDSV06 SAVING       DATA-SPDIS IN MODEL GWF_TRANSBASE    PACKAGE NPF             CONNECTED TO MODEL GWF_TRANSBASE    PACKAGE NPF              ON UNIT   1026 AT TIME STEP     53, STRESS PERIOD      2
 UBDSV06 SAVING              WEL IN MODEL GWF_TRANSBASE    PACKAGE GWF_TRANSBASE   CONNECTED TO MODEL GWF_TRANSBASE    PACKAGE WEL-1            ON UNIT   1026 AT TIME STEP     53, STRESS PERIOD      2
 UBDSV06 SAVING              CHD IN MODEL GWF_TRANSBASE    PACKAGE GWF_TRANSBASE   CONNECTED TO MODEL GWF_TRANSBASE    PACKAGE CHD-1            ON UNIT   1026 AT TIME STEP     53, STRESS PERIOD      2

 HEAD WILL BE SAVED ON UNIT 1027 AT END OF TIME STEP   53, STRESS PERIOD    2

end timestep


start timestep kper="2" kstp="54" mode="normal"

 UBDSV1 SAVING           STO-SS ON UNIT   1026 AT TIME STEP     54, STRESS PERIOD      2
 UBDSV1 SAVING           STO-SY ON UNIT   1026 AT TIME STEP     54, STRESS PERIOD      2
 UBDSV1 SAVING     FLOW-JA-FACE ON UNIT   1026 AT TIME STEP     54, STRESS PERIOD      2
 UBDSV06 SAVING       DATA-SPDIS IN MODEL GWF_TRANSBASE    PACKAGE NPF             CONNECTED TO MODEL GWF_TRANSBASE    PACKAGE NPF              ON UNIT   1026 AT TIME STEP     54, STRESS PERIOD      2
 UBDSV06 SAVING              WEL IN MODEL GWF_TRANSBASE    PACKAGE GWF_TRANSBASE   CONNECTED TO MODEL GWF_TRANSBASE    PACKAGE WEL-1            ON UNIT   1026 AT TIME STEP     54, STRESS PERIOD      2
 UBDSV06 SAVING              CHD IN MODEL GWF_TRANSBASE    PACKAGE GWF_TRANSBASE   CONNECTED TO MODEL GWF_TRANSBASE    PACKAGE CHD-1            ON UNIT   1026 AT TIME STEP     54, STRESS PERIOD      2

 HEAD WILL BE SAVED ON UNIT 1027 AT END OF TIME STEP   54, STRESS PERIOD    2

end timestep


start timestep kper="2" kstp="55" mode="normal"

 UBDSV1 SAVING           STO-SS ON UNIT   1026 AT TIME STEP     55, STRESS PERIOD      2
 UBDSV1 SAVING           STO-SY ON UNIT   1026 AT TIME STEP     55, STRESS PERIOD      2
 UBDSV1 SAVING     FLOW-JA-FACE ON UNIT   1026 AT TIME STEP     55, STRESS PERIOD      2
 UBDSV06 SAVING       DATA-SPDIS IN MODEL GWF_TRANSBASE    PACKAGE NPF             CONNECTED TO MODEL GWF_TRANSBASE    PACKAGE NPF              ON UNIT   1026 AT TIME STEP     55, STRESS PERIOD      2
 UBDSV06 SAVING              WEL IN MODEL GWF_TRANSBASE    PACKAGE GWF_TRANSBASE   CONNECTED TO MODEL GWF_TRANSBASE    PACKAGE WEL-1            ON UNIT   1026 AT TIME STEP     55, STRESS PERIOD      2
 UBDSV06 SAVING              CHD IN MODEL GWF_TRANSBASE    PACKAGE GWF_TRANSBASE   CONNECTED TO MODEL GWF_TRANSBASE    PACKAGE CHD-1            ON UNIT   1026 AT TIME STEP     55, STRESS PERIOD      2

 HEAD WILL BE SAVED ON UNIT 1027 AT END OF TIME STEP   55, STRESS PERIOD    2

end timestep


start timestep kper="2" kstp="56" mode="normal"

 UBDSV1 SAVING           STO-SS ON UNIT   1026 AT TIME STEP     56, STRESS PERIOD      2
 UBDSV1 SAVING           STO-SY ON UNIT   1026 AT TIME STEP     56, STRESS PERIOD      2
 UBDSV1 SAVING     FLOW-JA-FACE ON UNIT   1026 AT TIME STEP     56, STRESS PERIOD      2
 UBDSV06 SAVING       DATA-SPDIS IN MODEL GWF_TRANSBASE    PACKAGE NPF             CONNECTED TO MODEL GWF_TRANSBASE    PACKAGE NPF              ON UNIT   1026 AT TIME STEP     56, STRESS PERIOD      2
 UBDSV06 SAVING              WEL IN MODEL GWF_TRANSBASE    PACKAGE GWF_TRANSBASE   CONNECTED TO MODEL GWF_TRANSBASE    PACKAGE WEL-1            ON UNIT   1026 AT TIME STEP     56, STRESS PERIOD      2
 UBDSV06 SAVING              CHD IN MODEL GWF_TRANSBASE    PACKAGE GWF_TRANSBASE   CONNECTED TO MODEL GWF_TRANSBASE    PACKAGE CHD-1            ON UNIT   1026 AT TIME STEP     56, STRESS PERIOD      2

 HEAD WILL BE SAVED ON UNIT 1027 AT END OF TIME STEP   56, STRESS PERIOD    2

end timestep


start timestep kper="2" kstp="57" mode="normal"

 UBDSV1 SAVING           STO-SS ON UNIT   1026 AT TIME STEP     57, STRESS PERIOD      2
 UBDSV1 SAVING           STO-SY ON UNIT   1026 AT TIME STEP     57, STRESS PERIOD      2
 UBDSV1 SAVING     FLOW-JA-FACE ON UNIT   1026 AT TIME STEP     57, STRESS PERIOD      2
 UBDSV06 SAVING       DATA-SPDIS IN MODEL GWF_TRANSBASE    PACKAGE NPF             CONNECTED TO MODEL GWF_TRANSBASE    PACKAGE NPF              ON UNIT   1026 AT TIME STEP     57, STRESS PERIOD      2
 UBDSV06 SAVING              WEL IN MODEL GWF_TRANSBASE    PACKAGE GWF_TRANSBASE   CONNECTED TO MODEL GWF_TRANSBASE    PACKAGE WEL-1            ON UNIT   1026 AT TIME STEP     57, STRESS PERIOD      2
 UBDSV06 SAVING              CHD IN MODEL GWF_TRANSBASE    PACKAGE GWF_TRANSBASE   CONNECTED TO MODEL GWF_TRANSBASE    PACKAGE CHD-1            ON UNIT   1026 AT TIME STEP     57, STRESS PERIOD      2

 HEAD WILL BE SAVED ON UNIT 1027 AT END OF TIME STEP   57, STRESS PERIOD    2

end timestep


start timestep kper="2" kstp="58" mode="normal"

 UBDSV1 SAVING           STO-SS ON UNIT   1026 AT TIME STEP     58, STRESS PERIOD      2
 UBDSV1 SAVING           STO-SY ON UNIT   1026 AT TIME STEP     58, STRESS PERIOD      2
 UBDSV1 SAVING     FLOW-JA-FACE ON UNIT   1026 AT TIME STEP     58, STRESS PERIOD      2
 UBDSV06 SAVING       DATA-SPDIS IN MODEL GWF_TRANSBASE    PACKAGE NPF             CONNECTED TO MODEL GWF_TRANSBASE    PACKAGE NPF              ON UNIT   1026 AT TIME STEP     58, STRESS PERIOD      2
 UBDSV06 SAVING              WEL IN MODEL GWF_TRANSBASE    PACKAGE GWF_TRANSBASE   CONNECTED TO MODEL GWF_TRANSBASE    PACKAGE WEL-1            ON UNIT   1026 AT TIME STEP     58, STRESS PERIOD      2
 UBDSV06 SAVING              CHD IN MODEL GWF_TRANSBASE    PACKAGE GWF_TRANSBASE   CONNECTED TO MODEL GWF_TRANSBASE    PACKAGE CHD-1            ON UNIT   1026 AT TIME STEP     58, STRESS PERIOD      2

 HEAD WILL BE SAVED ON UNIT 1027 AT END OF TIME STEP   58, STRESS PERIOD    2

end timestep


start timestep kper="2" kstp="59" mode="normal"

 UBDSV1 SAVING           STO-SS ON UNIT   1026 AT TIME STEP     59, STRESS PERIOD      2
 UBDSV1 SAVING           STO-SY ON UNIT   1026 AT TIME STEP     59, STRESS PERIOD      2
 UBDSV1 SAVING     FLOW-JA-FACE ON UNIT   1026 AT TIME STEP     59, STRESS PERIOD      2
 UBDSV06 SAVING       DATA-SPDIS IN MODEL GWF_TRANSBASE    PACKAGE NPF             CONNECTED TO MODEL GWF_TRANSBASE    PACKAGE NPF              ON UNIT   1026 AT TIME STEP     59, STRESS PERIOD      2
 UBDSV06 SAVING              WEL IN MODEL GWF_TRANSBASE    PACKAGE GWF_TRANSBASE   CONNECTED TO MODEL GWF_TRANSBASE    PACKAGE WEL-1            ON UNIT   1026 AT TIME STEP     59, STRESS PERIOD      2
 UBDSV06 SAVING              CHD IN MODEL GWF_TRANSBASE    PACKAGE GWF_TRANSBASE   CONNECTED TO MODEL GWF_TRANSBASE    PACKAGE CHD-1            ON UNIT   1026 AT TIME STEP     59, STRESS PERIOD      2

 HEAD WILL BE SAVED ON UNIT 1027 AT END OF TIME STEP   59, STRESS PERIOD    2

end timestep


start timestep kper="2" kstp="60" mode="normal"

 UBDSV1 SAVING           STO-SS ON UNIT   1026 AT TIME STEP     60, STRESS PERIOD      2
 UBDSV1 SAVING           STO-SY ON UNIT   1026 AT TIME STEP     60, STRESS PERIOD      2
 UBDSV1 SAVING     FLOW-JA-FACE ON UNIT   1026 AT TIME STEP     60, STRESS PERIOD      2
 UBDSV06 SAVING       DATA-SPDIS IN MODEL GWF_TRANSBASE    PACKAGE NPF             CONNECTED TO MODEL GWF_TRANSBASE    PACKAGE NPF              ON UNIT   1026 AT TIME STEP     60, STRESS PERIOD      2
 UBDSV06 SAVING              WEL IN MODEL GWF_TRANSBASE    PACKAGE GWF_TRANSBASE   CONNECTED TO MODEL GWF_TRANSBASE    PACKAGE WEL-1            ON UNIT   1026 AT TIME STEP     60, STRESS PERIOD      2
 UBDSV06 SAVING              CHD IN MODEL GWF_TRANSBASE    PACKAGE GWF_TRANSBASE   CONNECTED TO MODEL GWF_TRANSBASE    PACKAGE CHD-1            ON UNIT   1026 AT TIME STEP     60, STRESS PERIOD      2

 HEAD WILL BE SAVED ON UNIT 1027 AT END OF TIME STEP   60, STRESS PERIOD    2

end timestep


start timestep kper="2" kstp="61" mode="normal"

 UBDSV1 SAVING           STO-SS ON UNIT   1026 AT TIME STEP     61, STRESS PERIOD      2
 UBDSV1 SAVING           STO-SY ON UNIT   1026 AT TIME STEP     61, STRESS PERIOD      2
 UBDSV1 SAVING     FLOW-JA-FACE ON UNIT   1026 AT TIME STEP     61, STRESS PERIOD      2
 UBDSV06 SAVING       DATA-SPDIS IN MODEL GWF_TRANSBASE    PACKAGE NPF             CONNECTED TO MODEL GWF_TRANSBASE    PACKAGE NPF              ON UNIT   1026 AT TIME STEP     61, STRESS PERIOD      2
 UBDSV06 SAVING              WEL IN MODEL GWF_TRANSBASE    PACKAGE GWF_TRANSBASE   CONNECTED TO MODEL GWF_TRANSBASE    PACKAGE WEL-1            ON UNIT   1026 AT TIME STEP     61, STRESS PERIOD      2
 UBDSV06 SAVING              CHD IN MODEL GWF_TRANSBASE    PACKAGE GWF_TRANSBASE   CONNECTED TO MODEL GWF_TRANSBASE    PACKAGE CHD-1            ON UNIT   1026 AT TIME STEP     61, STRESS PERIOD      2

 HEAD WILL BE SAVED ON UNIT 1027 AT END OF TIME STEP   61, STRESS PERIOD    2

end timestep


start timestep kper="2" kstp="62" mode="normal"

 UBDSV1 SAVING           STO-SS ON UNIT   1026 AT TIME STEP     62, STRESS PERIOD      2
 UBDSV1 SAVING           STO-SY ON UNIT   1026 AT TIME STEP     62, STRESS PERIOD      2
 UBDSV1 SAVING     FLOW-JA-FACE ON UNIT   1026 AT TIME STEP     62, STRESS PERIOD      2
 UBDSV06 SAVING       DATA-SPDIS IN MODEL GWF_TRANSBASE    PACKAGE NPF             CONNECTED TO MODEL GWF_TRANSBASE    PACKAGE NPF              ON UNIT   1026 AT TIME STEP     62, STRESS PERIOD      2
 UBDSV06 SAVING              WEL IN MODEL GWF_TRANSBASE    PACKAGE GWF_TRANSBASE   CONNECTED TO MODEL GWF_TRANSBASE    PACKAGE WEL-1            ON UNIT   1026 AT TIME STEP     62, STRESS PERIOD      2
 UBDSV06 SAVING              CHD IN MODEL GWF_TRANSBASE    PACKAGE GWF_TRANSBASE   CONNECTED TO MODEL GWF_TRANSBASE    PACKAGE CHD-1            ON UNIT   1026 AT TIME STEP     62, STRESS PERIOD      2

 HEAD WILL BE SAVED ON UNIT 1027 AT END OF TIME STEP   62, STRESS PERIOD    2

end timestep


start timestep kper="2" kstp="63" mode="normal"

 UBDSV1 SAVING           STO-SS ON UNIT   1026 AT TIME STEP     63, STRESS PERIOD      2
 UBDSV1 SAVING           STO-SY ON UNIT   1026 AT TIME STEP     63, STRESS PERIOD      2
 UBDSV1 SAVING     FLOW-JA-FACE ON UNIT   1026 AT TIME STEP     63, STRESS PERIOD      2
 UBDSV06 SAVING       DATA-SPDIS IN MODEL GWF_TRANSBASE    PACKAGE NPF             CONNECTED TO MODEL GWF_TRANSBASE    PACKAGE NPF              ON UNIT   1026 AT TIME STEP     63, STRESS PERIOD      2
 UBDSV06 SAVING              WEL IN MODEL GWF_TRANSBASE    PACKAGE GWF_TRANSBASE   CONNECTED TO MODEL GWF_TRANSBASE    PACKAGE WEL-1            ON UNIT   1026 AT TIME STEP     63, STRESS PERIOD      2
 UBDSV06 SAVING              CHD IN MODEL GWF_TRANSBASE    PACKAGE GWF_TRANSBASE   CONNECTED TO MODEL GWF_TRANSBASE    PACKAGE CHD-1            ON UNIT   1026 AT TIME STEP     63, STRESS PERIOD      2

 HEAD WILL BE SAVED ON UNIT 1027 AT END OF TIME STEP   63, STRESS PERIOD    2

end timestep


start timestep kper="2" kstp="64" mode="normal"

 UBDSV1 SAVING           STO-SS ON UNIT   1026 AT TIME STEP     64, STRESS PERIOD      2
 UBDSV1 SAVING           STO-SY ON UNIT   1026 AT TIME STEP     64, STRESS PERIOD      2
 UBDSV1 SAVING     FLOW-JA-FACE ON UNIT   1026 AT TIME STEP     64, STRESS PERIOD      2
 UBDSV06 SAVING       DATA-SPDIS IN MODEL GWF_TRANSBASE    PACKAGE NPF             CONNECTED TO MODEL GWF_TRANSBASE    PACKAGE NPF              ON UNIT   1026 AT TIME STEP     64, STRESS PERIOD      2
 UBDSV06 SAVING              WEL IN MODEL GWF_TRANSBASE    PACKAGE GWF_TRANSBASE   CONNECTED TO MODEL GWF_TRANSBASE    PACKAGE WEL-1            ON UNIT   1026 AT TIME STEP     64, STRESS PERIOD      2
 UBDSV06 SAVING              CHD IN MODEL GWF_TRANSBASE    PACKAGE GWF_TRANSBASE   CONNECTED TO MODEL GWF_TRANSBASE    PACKAGE CHD-1            ON UNIT   1026 AT TIME STEP     64, STRESS PERIOD      2

 HEAD WILL BE SAVED ON UNIT 1027 AT END OF TIME STEP   64, STRESS PERIOD    2

end timestep


start timestep kper="2" kstp="65" mode="normal"

 UBDSV1 SAVING           STO-SS ON UNIT   1026 AT TIME STEP     65, STRESS PERIOD      2
 UBDSV1 SAVING           STO-SY ON UNIT   1026 AT TIME STEP     65, STRESS PERIOD      2
 UBDSV1 SAVING     FLOW-JA-FACE ON UNIT   1026 AT TIME STEP     65, STRESS PERIOD      2
 UBDSV06 SAVING       DATA-SPDIS IN MODEL GWF_TRANSBASE    PACKAGE NPF             CONNECTED TO MODEL GWF_TRANSBASE    PACKAGE NPF              ON UNIT   1026 AT TIME STEP     65, STRESS PERIOD      2
 UBDSV06 SAVING              WEL IN MODEL GWF_TRANSBASE    PACKAGE GWF_TRANSBASE   CONNECTED TO MODEL GWF_TRANSBASE    PACKAGE WEL-1            ON UNIT   1026 AT TIME STEP     65, STRESS PERIOD      2
 UBDSV06 SAVING              CHD IN MODEL GWF_TRANSBASE    PACKAGE GWF_TRANSBASE   CONNECTED TO MODEL GWF_TRANSBASE    PACKAGE CHD-1            ON UNIT   1026 AT TIME STEP     65, STRESS PERIOD      2

 HEAD WILL BE SAVED ON UNIT 1027 AT END OF TIME STEP   65, STRESS PERIOD    2

end timestep


start timestep kper="2" kstp="66" mode="normal"

 UBDSV1 SAVING           STO-SS ON UNIT   1026 AT TIME STEP     66, STRESS PERIOD      2
 UBDSV1 SAVING           STO-SY ON UNIT   1026 AT TIME STEP     66, STRESS PERIOD      2
 UBDSV1 SAVING     FLOW-JA-FACE ON UNIT   1026 AT TIME STEP     66, STRESS PERIOD      2
 UBDSV06 SAVING       DATA-SPDIS IN MODEL GWF_TRANSBASE    PACKAGE NPF             CONNECTED TO MODEL GWF_TRANSBASE    PACKAGE NPF              ON UNIT   1026 AT TIME STEP     66, STRESS PERIOD      2
 UBDSV06 SAVING              WEL IN MODEL GWF_TRANSBASE    PACKAGE GWF_TRANSBASE   CONNECTED TO MODEL GWF_TRANSBASE    PACKAGE WEL-1            ON UNIT   1026 AT TIME STEP     66, STRESS PERIOD      2
 UBDSV06 SAVING              CHD IN MODEL GWF_TRANSBASE    PACKAGE GWF_TRANSBASE   CONNECTED TO MODEL GWF_TRANSBASE    PACKAGE CHD-1            ON UNIT   1026 AT TIME STEP     66, STRESS PERIOD      2

 HEAD WILL BE SAVED ON UNIT 1027 AT END OF TIME STEP   66, STRESS PERIOD    2

end timestep


start timestep kper="2" kstp="67" mode="normal"

 UBDSV1 SAVING           STO-SS ON UNIT   1026 AT TIME STEP     67, STRESS PERIOD      2
 UBDSV1 SAVING           STO-SY ON UNIT   1026 AT TIME STEP     67, STRESS PERIOD      2
 UBDSV1 SAVING     FLOW-JA-FACE ON UNIT   1026 AT TIME STEP     67, STRESS PERIOD      2
 UBDSV06 SAVING       DATA-SPDIS IN MODEL GWF_TRANSBASE    PACKAGE NPF             CONNECTED TO MODEL GWF_TRANSBASE    PACKAGE NPF              ON UNIT   1026 AT TIME STEP     67, STRESS PERIOD      2
 UBDSV06 SAVING              WEL IN MODEL GWF_TRANSBASE    PACKAGE GWF_TRANSBASE   CONNECTED TO MODEL GWF_TRANSBASE    PACKAGE WEL-1            ON UNIT   1026 AT TIME STEP     67, STRESS PERIOD      2
 UBDSV06 SAVING              CHD IN MODEL GWF_TRANSBASE    PACKAGE GWF_TRANSBASE   CONNECTED TO MODEL GWF_TRANSBASE    PACKAGE CHD-1            ON UNIT   1026 AT TIME STEP     67, STRESS PERIOD      2

 HEAD WILL BE SAVED ON UNIT 1027 AT END OF TIME STEP   67, STRESS PERIOD    2

end timestep


start timestep kper="2" kstp="68" mode="normal"

 UBDSV1 SAVING           STO-SS ON UNIT   1026 AT TIME STEP     68, STRESS PERIOD      2
 UBDSV1 SAVING           STO-SY ON UNIT   1026 AT TIME STEP     68, STRESS PERIOD      2
 UBDSV1 SAVING     FLOW-JA-FACE ON UNIT   1026 AT TIME STEP     68, STRESS PERIOD      2
 UBDSV06 SAVING       DATA-SPDIS IN MODEL GWF_TRANSBASE    PACKAGE NPF             CONNECTED TO MODEL GWF_TRANSBASE    PACKAGE NPF              ON UNIT   1026 AT TIME STEP     68, STRESS PERIOD      2
 UBDSV06 SAVING              WEL IN MODEL GWF_TRANSBASE    PACKAGE GWF_TRANSBASE   CONNECTED TO MODEL GWF_TRANSBASE    PACKAGE WEL-1            ON UNIT   1026 AT TIME STEP     68, STRESS PERIOD      2
 UBDSV06 SAVING              CHD IN MODEL GWF_TRANSBASE    PACKAGE GWF_TRANSBASE   CONNECTED TO MODEL GWF_TRANSBASE    PACKAGE CHD-1            ON UNIT   1026 AT TIME STEP     68, STRESS PERIOD      2

 HEAD WILL BE SAVED ON UNIT 1027 AT END OF TIME STEP   68, STRESS PERIOD    2

end timestep


start timestep kper="2" kstp="69" mode="normal"

 UBDSV1 SAVING           STO-SS ON UNIT   1026 AT TIME STEP     69, STRESS PERIOD      2
 UBDSV1 SAVING           STO-SY ON UNIT   1026 AT TIME STEP     69, STRESS PERIOD      2
 UBDSV1 SAVING     FLOW-JA-FACE ON UNIT   1026 AT TIME STEP     69, STRESS PERIOD      2
[...]
 UBDSV06 SAVING              CHD IN MODEL GWF_TRANSBASE    PACKAGE GWF_TRANSBASE   CONNECTED TO MODEL GWF_TRANSBASE    PACKAGE CHD-1            ON UNIT   1026 AT TIME STEP    103, STRESS PERIOD      4

 HEAD WILL BE SAVED ON UNIT 1027 AT END OF TIME STEP  103, STRESS PERIOD    4

end timestep


start timestep kper="4" kstp="104" mode="normal"

 UBDSV1 SAVING           STO-SS ON UNIT   1026 AT TIME STEP    104, STRESS PERIOD      4
 UBDSV1 SAVING           STO-SY ON UNIT   1026 AT TIME STEP    104, STRESS PERIOD      4
 UBDSV1 SAVING     FLOW-JA-FACE ON UNIT   1026 AT TIME STEP    104, STRESS PERIOD      4
 UBDSV06 SAVING       DATA-SPDIS IN MODEL GWF_TRANSBASE    PACKAGE NPF             CONNECTED TO MODEL GWF_TRANSBASE    PACKAGE NPF              ON UNIT   1026 AT TIME STEP    104, STRESS PERIOD      4
 UBDSV06 SAVING              WEL IN MODEL GWF_TRANSBASE    PACKAGE GWF_TRANSBASE   CONNECTED TO MODEL GWF_TRANSBASE    PACKAGE WEL-1            ON UNIT   1026 AT TIME STEP    104, STRESS PERIOD      4
 UBDSV06 SAVING              CHD IN MODEL GWF_TRANSBASE    PACKAGE GWF_TRANSBASE   CONNECTED TO MODEL GWF_TRANSBASE    PACKAGE CHD-1            ON UNIT   1026 AT TIME STEP    104, STRESS PERIOD      4

 HEAD WILL BE SAVED ON UNIT 1027 AT END OF TIME STEP  104, STRESS PERIOD    4

end timestep


start timestep kper="4" kstp="105" mode="normal"

 UBDSV1 SAVING           STO-SS ON UNIT   1026 AT TIME STEP    105, STRESS PERIOD      4
 UBDSV1 SAVING           STO-SY ON UNIT   1026 AT TIME STEP    105, STRESS PERIOD      4
 UBDSV1 SAVING     FLOW-JA-FACE ON UNIT   1026 AT TIME STEP    105, STRESS PERIOD      4
 UBDSV06 SAVING       DATA-SPDIS IN MODEL GWF_TRANSBASE    PACKAGE NPF             CONNECTED TO MODEL GWF_TRANSBASE    PACKAGE NPF              ON UNIT   1026 AT TIME STEP    105, STRESS PERIOD      4
 UBDSV06 SAVING              WEL IN MODEL GWF_TRANSBASE    PACKAGE GWF_TRANSBASE   CONNECTED TO MODEL GWF_TRANSBASE    PACKAGE WEL-1            ON UNIT   1026 AT TIME STEP    105, STRESS PERIOD      4
 UBDSV06 SAVING              CHD IN MODEL GWF_TRANSBASE    PACKAGE GWF_TRANSBASE   CONNECTED TO MODEL GWF_TRANSBASE    PACKAGE CHD-1            ON UNIT   1026 AT TIME STEP    105, STRESS PERIOD      4

 HEAD WILL BE SAVED ON UNIT 1027 AT END OF TIME STEP  105, STRESS PERIOD    4

end timestep


start timestep kper="4" kstp="106" mode="normal"

 UBDSV1 SAVING           STO-SS ON UNIT   1026 AT TIME STEP    106, STRESS PERIOD      4
 UBDSV1 SAVING           STO-SY ON UNIT   1026 AT TIME STEP    106, STRESS PERIOD      4
 UBDSV1 SAVING     FLOW-JA-FACE ON UNIT   1026 AT TIME STEP    106, STRESS PERIOD      4
 UBDSV06 SAVING       DATA-SPDIS IN MODEL GWF_TRANSBASE    PACKAGE NPF             CONNECTED TO MODEL GWF_TRANSBASE    PACKAGE NPF              ON UNIT   1026 AT TIME STEP    106, STRESS PERIOD      4
 UBDSV06 SAVING              WEL IN MODEL GWF_TRANSBASE    PACKAGE GWF_TRANSBASE   CONNECTED TO MODEL GWF_TRANSBASE    PACKAGE WEL-1            ON UNIT   1026 AT TIME STEP    106, STRESS PERIOD      4
 UBDSV06 SAVING              CHD IN MODEL GWF_TRANSBASE    PACKAGE GWF_TRANSBASE   CONNECTED TO MODEL GWF_TRANSBASE    PACKAGE CHD-1            ON UNIT   1026 AT TIME STEP    106, STRESS PERIOD      4

 HEAD WILL BE SAVED ON UNIT 1027 AT END OF TIME STEP  106, STRESS PERIOD    4

end timestep


start timestep kper="4" kstp="107" mode="normal"

 UBDSV1 SAVING           STO-SS ON UNIT   1026 AT TIME STEP    107, STRESS PERIOD      4
 UBDSV1 SAVING           STO-SY ON UNIT   1026 AT TIME STEP    107, STRESS PERIOD      4
 UBDSV1 SAVING     FLOW-JA-FACE ON UNIT   1026 AT TIME STEP    107, STRESS PERIOD      4
 UBDSV06 SAVING       DATA-SPDIS IN MODEL GWF_TRANSBASE    PACKAGE NPF             CONNECTED TO MODEL GWF_TRANSBASE    PACKAGE NPF              ON UNIT   1026 AT TIME STEP    107, STRESS PERIOD      4
 UBDSV06 SAVING              WEL IN MODEL GWF_TRANSBASE    PACKAGE GWF_TRANSBASE   CONNECTED TO MODEL GWF_TRANSBASE    PACKAGE WEL-1            ON UNIT   1026 AT TIME STEP    107, STRESS PERIOD      4
 UBDSV06 SAVING              CHD IN MODEL GWF_TRANSBASE    PACKAGE GWF_TRANSBASE   CONNECTED TO MODEL GWF_TRANSBASE    PACKAGE CHD-1            ON UNIT   1026 AT TIME STEP    107, STRESS PERIOD      4

 HEAD WILL BE SAVED ON UNIT 1027 AT END OF TIME STEP  107, STRESS PERIOD    4

end timestep


start timestep kper="4" kstp="108" mode="normal"

 UBDSV1 SAVING           STO-SS ON UNIT   1026 AT TIME STEP    108, STRESS PERIOD      4
 UBDSV1 SAVING           STO-SY ON UNIT   1026 AT TIME STEP    108, STRESS PERIOD      4
 UBDSV1 SAVING     FLOW-JA-FACE ON UNIT   1026 AT TIME STEP    108, STRESS PERIOD      4
 UBDSV06 SAVING       DATA-SPDIS IN MODEL GWF_TRANSBASE    PACKAGE NPF             CONNECTED TO MODEL GWF_TRANSBASE    PACKAGE NPF              ON UNIT   1026 AT TIME STEP    108, STRESS PERIOD      4
 UBDSV06 SAVING              WEL IN MODEL GWF_TRANSBASE    PACKAGE GWF_TRANSBASE   CONNECTED TO MODEL GWF_TRANSBASE    PACKAGE WEL-1            ON UNIT   1026 AT TIME STEP    108, STRESS PERIOD      4
 UBDSV06 SAVING              CHD IN MODEL GWF_TRANSBASE    PACKAGE GWF_TRANSBASE   CONNECTED TO MODEL GWF_TRANSBASE    PACKAGE CHD-1            ON UNIT   1026 AT TIME STEP    108, STRESS PERIOD      4

 HEAD WILL BE SAVED ON UNIT 1027 AT END OF TIME STEP  108, STRESS PERIOD    4

end timestep


start timestep kper="4" kstp="109" mode="normal"

 UBDSV1 SAVING           STO-SS ON UNIT   1026 AT TIME STEP    109, STRESS PERIOD      4
 UBDSV1 SAVING           STO-SY ON UNIT   1026 AT TIME STEP    109, STRESS PERIOD      4
 UBDSV1 SAVING     FLOW-JA-FACE ON UNIT   1026 AT TIME STEP    109, STRESS PERIOD      4
 UBDSV06 SAVING       DATA-SPDIS IN MODEL GWF_TRANSBASE    PACKAGE NPF             CONNECTED TO MODEL GWF_TRANSBASE    PACKAGE NPF              ON UNIT   1026 AT TIME STEP    109, STRESS PERIOD      4
 UBDSV06 SAVING              WEL IN MODEL GWF_TRANSBASE    PACKAGE GWF_TRANSBASE   CONNECTED TO MODEL GWF_TRANSBASE    PACKAGE WEL-1            ON UNIT   1026 AT TIME STEP    109, STRESS PERIOD      4
 UBDSV06 SAVING              CHD IN MODEL GWF_TRANSBASE    PACKAGE GWF_TRANSBASE   CONNECTED TO MODEL GWF_TRANSBASE    PACKAGE CHD-1            ON UNIT   1026 AT TIME STEP    109, STRESS PERIOD      4

 HEAD WILL BE SAVED ON UNIT 1027 AT END OF TIME STEP  109, STRESS PERIOD    4

end timestep


start timestep kper="4" kstp="110" mode="normal"

 UBDSV1 SAVING           STO-SS ON UNIT   1026 AT TIME STEP    110, STRESS PERIOD      4
 UBDSV1 SAVING           STO-SY ON UNIT   1026 AT TIME STEP    110, STRESS PERIOD      4
 UBDSV1 SAVING     FLOW-JA-FACE ON UNIT   1026 AT TIME STEP    110, STRESS PERIOD      4
 UBDSV06 SAVING       DATA-SPDIS IN MODEL GWF_TRANSBASE    PACKAGE NPF             CONNECTED TO MODEL GWF_TRANSBASE    PACKAGE NPF              ON UNIT   1026 AT TIME STEP    110, STRESS PERIOD      4
 UBDSV06 SAVING              WEL IN MODEL GWF_TRANSBASE    PACKAGE GWF_TRANSBASE   CONNECTED TO MODEL GWF_TRANSBASE    PACKAGE WEL-1            ON UNIT   1026 AT TIME STEP    110, STRESS PERIOD      4
 UBDSV06 SAVING              CHD IN MODEL GWF_TRANSBASE    PACKAGE GWF_TRANSBASE   CONNECTED TO MODEL GWF_TRANSBASE    PACKAGE CHD-1            ON UNIT   1026 AT TIME STEP    110, STRESS PERIOD      4

 HEAD WILL BE SAVED ON UNIT 1027 AT END OF TIME STEP  110, STRESS PERIOD    4

end timestep


start timestep kper="4" kstp="111" mode="normal"

 UBDSV1 SAVING           STO-SS ON UNIT   1026 AT TIME STEP    111, STRESS PERIOD      4
 UBDSV1 SAVING           STO-SY ON UNIT   1026 AT TIME STEP    111, STRESS PERIOD      4
 UBDSV1 SAVING     FLOW-JA-FACE ON UNIT   1026 AT TIME STEP    111, STRESS PERIOD      4
 UBDSV06 SAVING       DATA-SPDIS IN MODEL GWF_TRANSBASE    PACKAGE NPF             CONNECTED TO MODEL GWF_TRANSBASE    PACKAGE NPF              ON UNIT   1026 AT TIME STEP    111, STRESS PERIOD      4
 UBDSV06 SAVING              WEL IN MODEL GWF_TRANSBASE    PACKAGE GWF_TRANSBASE   CONNECTED TO MODEL GWF_TRANSBASE    PACKAGE WEL-1            ON UNIT   1026 AT TIME STEP    111, STRESS PERIOD      4
 UBDSV06 SAVING              CHD IN MODEL GWF_TRANSBASE    PACKAGE GWF_TRANSBASE   CONNECTED TO MODEL GWF_TRANSBASE    PACKAGE CHD-1            ON UNIT   1026 AT TIME STEP    111, STRESS PERIOD      4

 HEAD WILL BE SAVED ON UNIT 1027 AT END OF TIME STEP  111, STRESS PERIOD    4

end timestep


start timestep kper="4" kstp="112" mode="normal"

 UBDSV1 SAVING           STO-SS ON UNIT   1026 AT TIME STEP    112, STRESS PERIOD      4
 UBDSV1 SAVING           STO-SY ON UNIT   1026 AT TIME STEP    112, STRESS PERIOD      4
 UBDSV1 SAVING     FLOW-JA-FACE ON UNIT   1026 AT TIME STEP    112, STRESS PERIOD      4
 UBDSV06 SAVING       DATA-SPDIS IN MODEL GWF_TRANSBASE    PACKAGE NPF             CONNECTED TO MODEL GWF_TRANSBASE    PACKAGE NPF              ON UNIT   1026 AT TIME STEP    112, STRESS PERIOD      4
 UBDSV06 SAVING              WEL IN MODEL GWF_TRANSBASE    PACKAGE GWF_TRANSBASE   CONNECTED TO MODEL GWF_TRANSBASE    PACKAGE WEL-1            ON UNIT   1026 AT TIME STEP    112, STRESS PERIOD      4
 UBDSV06 SAVING              CHD IN MODEL GWF_TRANSBASE    PACKAGE GWF_TRANSBASE   CONNECTED TO MODEL GWF_TRANSBASE    PACKAGE CHD-1            ON UNIT   1026 AT TIME STEP    112, STRESS PERIOD      4

 HEAD WILL BE SAVED ON UNIT 1027 AT END OF TIME STEP  112, STRESS PERIOD    4

end timestep


start timestep kper="4" kstp="113" mode="normal"

 UBDSV1 SAVING           STO-SS ON UNIT   1026 AT TIME STEP    113, STRESS PERIOD      4
 UBDSV1 SAVING           STO-SY ON UNIT   1026 AT TIME STEP    113, STRESS PERIOD      4
 UBDSV1 SAVING     FLOW-JA-FACE ON UNIT   1026 AT TIME STEP    113, STRESS PERIOD      4
 UBDSV06 SAVING       DATA-SPDIS IN MODEL GWF_TRANSBASE    PACKAGE NPF             CONNECTED TO MODEL GWF_TRANSBASE    PACKAGE NPF              ON UNIT   1026 AT TIME STEP    113, STRESS PERIOD      4
 UBDSV06 SAVING              WEL IN MODEL GWF_TRANSBASE    PACKAGE GWF_TRANSBASE   CONNECTED TO MODEL GWF_TRANSBASE    PACKAGE WEL-1            ON UNIT   1026 AT TIME STEP    113, STRESS PERIOD      4
 UBDSV06 SAVING              CHD IN MODEL GWF_TRANSBASE    PACKAGE GWF_TRANSBASE   CONNECTED TO MODEL GWF_TRANSBASE    PACKAGE CHD-1            ON UNIT   1026 AT TIME STEP    113, STRESS PERIOD      4

 HEAD WILL BE SAVED ON UNIT 1027 AT END OF TIME STEP  113, STRESS PERIOD    4

end timestep


start timestep kper="4" kstp="114" mode="normal"

 UBDSV1 SAVING           STO-SS ON UNIT   1026 AT TIME STEP    114, STRESS PERIOD      4
 UBDSV1 SAVING           STO-SY ON UNIT   1026 AT TIME STEP    114, STRESS PERIOD      4
 UBDSV1 SAVING     FLOW-JA-FACE ON UNIT   1026 AT TIME STEP    114, STRESS PERIOD      4
 UBDSV06 SAVING       DATA-SPDIS IN MODEL GWF_TRANSBASE    PACKAGE NPF             CONNECTED TO MODEL GWF_TRANSBASE    PACKAGE NPF              ON UNIT   1026 AT TIME STEP    114, STRESS PERIOD      4
 UBDSV06 SAVING              WEL IN MODEL GWF_TRANSBASE    PACKAGE GWF_TRANSBASE   CONNECTED TO MODEL GWF_TRANSBASE    PACKAGE WEL-1            ON UNIT   1026 AT TIME STEP    114, STRESS PERIOD      4
 UBDSV06 SAVING              CHD IN MODEL GWF_TRANSBASE    PACKAGE GWF_TRANSBASE   CONNECTED TO MODEL GWF_TRANSBASE    PACKAGE CHD-1            ON UNIT   1026 AT TIME STEP    114, STRESS PERIOD      4

 HEAD WILL BE SAVED ON UNIT 1027 AT END OF TIME STEP  114, STRESS PERIOD    4

end timestep


start timestep kper="4" kstp="115" mode="normal"

 UBDSV1 SAVING           STO-SS ON UNIT   1026 AT TIME STEP    115, STRESS PERIOD      4
 UBDSV1 SAVING           STO-SY ON UNIT   1026 AT TIME STEP    115, STRESS PERIOD      4
 UBDSV1 SAVING     FLOW-JA-FACE ON UNIT   1026 AT TIME STEP    115, STRESS PERIOD      4
 UBDSV06 SAVING       DATA-SPDIS IN MODEL GWF_TRANSBASE    PACKAGE NPF             CONNECTED TO MODEL GWF_TRANSBASE    PACKAGE NPF              ON UNIT   1026 AT TIME STEP    115, STRESS PERIOD      4
 UBDSV06 SAVING              WEL IN MODEL GWF_TRANSBASE    PACKAGE GWF_TRANSBASE   CONNECTED TO MODEL GWF_TRANSBASE    PACKAGE WEL-1            ON UNIT   1026 AT TIME STEP    115, STRESS PERIOD      4
 UBDSV06 SAVING              CHD IN MODEL GWF_TRANSBASE    PACKAGE GWF_TRANSBASE   CONNECTED TO MODEL GWF_TRANSBASE    PACKAGE CHD-1            ON UNIT   1026 AT TIME STEP    115, STRESS PERIOD      4

 HEAD WILL BE SAVED ON UNIT 1027 AT END OF TIME STEP  115, STRESS PERIOD    4

end timestep


start timestep kper="4" kstp="116" mode="normal"

 UBDSV1 SAVING           STO-SS ON UNIT   1026 AT TIME STEP    116, STRESS PERIOD      4
 UBDSV1 SAVING           STO-SY ON UNIT   1026 AT TIME STEP    116, STRESS PERIOD      4
 UBDSV1 SAVING     FLOW-JA-FACE ON UNIT   1026 AT TIME STEP    116, STRESS PERIOD      4
 UBDSV06 SAVING       DATA-SPDIS IN MODEL GWF_TRANSBASE    PACKAGE NPF             CONNECTED TO MODEL GWF_TRANSBASE    PACKAGE NPF              ON UNIT   1026 AT TIME STEP    116, STRESS PERIOD      4
 UBDSV06 SAVING              WEL IN MODEL GWF_TRANSBASE    PACKAGE GWF_TRANSBASE   CONNECTED TO MODEL GWF_TRANSBASE    PACKAGE WEL-1            ON UNIT   1026 AT TIME STEP    116, STRESS PERIOD      4
 UBDSV06 SAVING              CHD IN MODEL GWF_TRANSBASE    PACKAGE GWF_TRANSBASE   CONNECTED TO MODEL GWF_TRANSBASE    PACKAGE CHD-1            ON UNIT   1026 AT TIME STEP    116, STRESS PERIOD      4

 HEAD WILL BE SAVED ON UNIT 1027 AT END OF TIME STEP  116, STRESS PERIOD    4

end timestep


start timestep kper="4" kstp="117" mode="normal"

 UBDSV1 SAVING           STO-SS ON UNIT   1026 AT TIME STEP    117, STRESS PERIOD      4
 UBDSV1 SAVING           STO-SY ON UNIT   1026 AT TIME STEP    117, STRESS PERIOD      4
 UBDSV1 SAVING     FLOW-JA-FACE ON UNIT   1026 AT TIME STEP    117, STRESS PERIOD      4
 UBDSV06 SAVING       DATA-SPDIS IN MODEL GWF_TRANSBASE    PACKAGE NPF             CONNECTED TO MODEL GWF_TRANSBASE    PACKAGE NPF              ON UNIT   1026 AT TIME STEP    117, STRESS PERIOD      4
 UBDSV06 SAVING              WEL IN MODEL GWF_TRANSBASE    PACKAGE GWF_TRANSBASE   CONNECTED TO MODEL GWF_TRANSBASE    PACKAGE WEL-1            ON UNIT   1026 AT TIME STEP    117, STRESS PERIOD      4
 UBDSV06 SAVING              CHD IN MODEL GWF_TRANSBASE    PACKAGE GWF_TRANSBASE   CONNECTED TO MODEL GWF_TRANSBASE    PACKAGE CHD-1            ON UNIT   1026 AT TIME STEP    117, STRESS PERIOD      4

 HEAD WILL BE SAVED ON UNIT 1027 AT END OF TIME STEP  117, STRESS PERIOD    4

end timestep


start timestep kper="4" kstp="118" mode="normal"

 UBDSV1 SAVING           STO-SS ON UNIT   1026 AT TIME STEP    118, STRESS PERIOD      4
 UBDSV1 SAVING           STO-SY ON UNIT   1026 AT TIME STEP    118, STRESS PERIOD      4
 UBDSV1 SAVING     FLOW-JA-FACE ON UNIT   1026 AT TIME STEP    118, STRESS PERIOD      4
 UBDSV06 SAVING       DATA-SPDIS IN MODEL GWF_TRANSBASE    PACKAGE NPF             CONNECTED TO MODEL GWF_TRANSBASE    PACKAGE NPF              ON UNIT   1026 AT TIME STEP    118, STRESS PERIOD      4
 UBDSV06 SAVING              WEL IN MODEL GWF_TRANSBASE    PACKAGE GWF_TRANSBASE   CONNECTED TO MODEL GWF_TRANSBASE    PACKAGE WEL-1            ON UNIT   1026 AT TIME STEP    118, STRESS PERIOD      4
 UBDSV06 SAVING              CHD IN MODEL GWF_TRANSBASE    PACKAGE GWF_TRANSBASE   CONNECTED TO MODEL GWF_TRANSBASE    PACKAGE CHD-1            ON UNIT   1026 AT TIME STEP    118, STRESS PERIOD      4

 HEAD WILL BE SAVED ON UNIT 1027 AT END OF TIME STEP  118, STRESS PERIOD    4

end timestep


start timestep kper="4" kstp="119" mode="normal"

 UBDSV1 SAVING           STO-SS ON UNIT   1026 AT TIME STEP    119, STRESS PERIOD      4
 UBDSV1 SAVING           STO-SY ON UNIT   1026 AT TIME STEP    119, STRESS PERIOD      4
 UBDSV1 SAVING     FLOW-JA-FACE ON UNIT   1026 AT TIME STEP    119, STRESS PERIOD      4
 UBDSV06 SAVING       DATA-SPDIS IN MODEL GWF_TRANSBASE    PACKAGE NPF             CONNECTED TO MODEL GWF_TRANSBASE    PACKAGE NPF              ON UNIT   1026 AT TIME STEP    119, STRESS PERIOD      4
 UBDSV06 SAVING              WEL IN MODEL GWF_TRANSBASE    PACKAGE GWF_TRANSBASE   CONNECTED TO MODEL GWF_TRANSBASE    PACKAGE WEL-1            ON UNIT   1026 AT TIME STEP    119, STRESS PERIOD      4
 UBDSV06 SAVING              CHD IN MODEL GWF_TRANSBASE    PACKAGE GWF_TRANSBASE   CONNECTED TO MODEL GWF_TRANSBASE    PACKAGE CHD-1            ON UNIT   1026 AT TIME STEP    119, STRESS PERIOD      4

 HEAD WILL BE SAVED ON UNIT 1027 AT END OF TIME STEP  119, STRESS PERIOD    4

end timestep


start timestep kper="4" kstp="120" mode="normal"

 UBDSV1 SAVING           STO-SS ON UNIT   1026 AT TIME STEP    120, STRESS PERIOD      4
 UBDSV1 SAVING           STO-SY ON UNIT   1026 AT TIME STEP    120, STRESS PERIOD      4
 UBDSV1 SAVING     FLOW-JA-FACE ON UNIT   1026 AT TIME STEP    120, STRESS PERIOD      4
 UBDSV06 SAVING       DATA-SPDIS IN MODEL GWF_TRANSBASE    PACKAGE NPF             CONNECTED TO MODEL GWF_TRANSBASE    PACKAGE NPF              ON UNIT   1026 AT TIME STEP    120, STRESS PERIOD      4
 UBDSV06 SAVING              WEL IN MODEL GWF_TRANSBASE    PACKAGE GWF_TRANSBASE   CONNECTED TO MODEL GWF_TRANSBASE    PACKAGE WEL-1            ON UNIT   1026 AT TIME STEP    120, STRESS PERIOD      4
 UBDSV06 SAVING              CHD IN MODEL GWF_TRANSBASE    PACKAGE GWF_TRANSBASE   CONNECTED TO MODEL GWF_TRANSBASE    PACKAGE CHD-1            ON UNIT   1026 AT TIME STEP    120, STRESS PERIOD      4

 HEAD WILL BE SAVED ON UNIT 1027 AT END OF TIME STEP  120, STRESS PERIOD    4


  VOLUME BUDGET FOR ENTIRE MODEL AT END OF TIME STEP  120, STRESS PERIOD   4
  ---------------------------------------------------------------------------------------------------

     CUMULATIVE VOLUME      L**3       RATES FOR THIS TIME STEP      L**3/T          PACKAGE NAME    
     ------------------                 ------------------------                     ----------------

           IN:                                      IN:
           ---                                      ---
              STO-SS =       2.3664E-03                STO-SS =       2.8562E-05     STORAGE                          
              STO-SY =          19.2636                STO-SY =           0.2565     STORAGE                          
                 WEL =           0.0000                   WEL =           0.0000     WEL-1                            
                 CHD =       5.3666E-05                   CHD =       4.2347E-06     CHD-1                            

            TOTAL IN =          19.2661              TOTAL IN =           0.2566

          OUT:                                     OUT:
          ----                                     ----
              STO-SS =       1.1692E-04                STO-SS =       9.8141E-06     STORAGE                          
              STO-SY =           1.2660                STO-SY =           0.1066     STORAGE                          
                 WEL =          18.0000                   WEL =           0.1500     WEL-1                            
                 CHD =           0.0000                   CHD =           0.0000     CHD-1                            

           TOTAL OUT =          19.2661             TOTAL OUT =           0.2566

            IN - OUT =      -5.6016E-05              IN - OUT =      -5.0252E-07

 PERCENT DISCREPANCY =          -0.00     PERCENT DISCREPANCY =          -0.00




         TIME SUMMARY AT END OF TIME STEP  120 IN STRESS PERIOD    4
                    SECONDS     MINUTES      HOURS       DAYS        YEARS
                    -----------------------------------------------------------
   TIME STEP LENGTH  7200.0      120.00      2.0000     8.33333E-02 2.28154E-04
 STRESS PERIOD TIME 8.64000E+05  14400.      240.00      10.000     2.73785E-02
         TOTAL TIME 2.67840E+06  44640.      744.00      31.000     8.48734E-02


end timestep

