                                   MODFLOW 6
                U.S. GEOLOGICAL SURVEY MODULAR HYDROLOGIC MODEL
                          GROUNDWATER FLOW MODEL (GWF)
                            VERSION 6.6.2 05/12/2025

   MODFLOW 6 compiled May 12 2025 12:42:18 with Intel(R) Fortran Intel(R) 64
   Compiler Classic for applications running on Intel(R) 64, Version 2021.7.0
                             Build 20220726_000000

This software has been approved for release by the U.S. Geological 
Survey (USGS). Although the software has been subjected to rigorous 
review, the USGS reserves the right to update the software as needed 
pursuant to further analysis and review. No warranty, expressed or 
implied, is made by the USGS or the U.S. Government as to the 
functionality of the software and related material nor shall the 
fact of release constitute any such warranty. Furthermore, the 
software is released on condition that neither the USGS nor the U.S. 
Government shall be held liable for any damages resulting from its 
authorized or unauthorized use. Also refer to the USGS Water 
Resources Software User Rights Notice for complete use, copyright, 
and distribution information.


As a work of the United States Government, this USGS product is 
in the public domain within the United States. You can copy, 
modify, distribute, and perform the work, even for commercial 
purposes, all without asking permission. Additionally, USGS 
waives copyright and related rights in the work worldwide 
through CC0 1.0 Universal Public Domain Dedication 
(https://creativecommons.org/publicdomain/zero/1.0/).

The following GNU Lesser General Public License (LGPL) libraries
are used in this USGS product:

    SPARSKIT version 2.0
      ilut, luson, and qsplit 
      (https://www-users.cse.umn.edu/~saad/software/SPARSKIT/)

    RCM - Reverse Cuthill McKee Ordering
      (https://people.math.sc.edu/Burkardt/f_src/rcm/rcm.html)

    BLAS - Basic Linear Algebra Subprograms Level 1
      (https://people.math.sc.edu/Burkardt/f_src/blas1_d/blas1_d.html)

    SPARSEKIT - Sparse Matrix Utility Package
      amux, dperm, dvperm, rperm, and cperm
      (https://people.sc.fsu.edu/~jburkardt/f77_src/sparsekit/sparsekit.html)

The following BSD-3 License libraries are used in this USGS product:

    Modern Fortran DAG Library
      Copyright (c) 2018, Jacob Williams
      All rights reserved.
      (https://github.com/jacobwilliams/daglib)

MODFLOW 6 compiler options: /Isrc\libmf6core.a.p /Isrc /I..\src
/Isrc\libmf6_external.a.p /MT /nologo /warn:general /warn:truncated_source
/stand:f18 /O2 /fpe:0 /heap-arrays:0 /traceback /fpp /Qdiag-disable:7416
/Qdiag-disable:7025 /Qdiag-disable:5268 /Qdiag-disable:10448
/Fdsrc\libmf6core.a.p\Utilities_compilerversion.F90.pdb
/module:src\libmf6core.a.p
/Fosrc/libmf6core.a.p/Utilities_compilerversion.F90.obj /c

System command used to initiate simulation:
"C:\Users\lucialabarca\pymf6-validation\.pixi\envs\default\python.EXE" control_test_well.py

MODFLOW was compiled using uniform precision.

Real Variables
  KIND: 8
  TINY (smallest non-zero value):    2.225074-308
  HUGE (largest value):    1.797693+308
  PRECISION: 15
  SIZE IN BITS: 64

Integer Variables
  KIND: 4
  HUGE (largest value): 2147483647
  SIZE IN BITS: 32

Long Integer Variables
  KIND: 8
  HUGE (largest value): 9223372036854775807
  SIZE IN BITS: 64

Logical Variables
  KIND: 4
  SIZE IN BITS: 32
 
 NAMEFILE OPTIONS:
    FLOWS WILL BE SAVED TO BUDGET FILE SPECIFIED IN OUTPUT CONTROL
 END NAMEFILE OPTIONS:

 DIS -- STRUCTURED GRID DISCRETIZATION PACKAGE, VERSION 2 : 3/27/2014 - INPUT READ FROM MEMPATH: __INPUT__/GWF_TRANSBASE/DIS                       


 NPF -- NODE PROPERTY FLOW PACKAGE, VERSION 1, 3/30/2015 INPUT READ FROM MEMPATH: __INPUT__/GWF_TRANSBASE/NPF                       


 IC -- Initial Conditions Package, Version 8, 3/28/2015 input read from mempath: __INPUT__/GWF_TRANSBASE/IC                        


 Setting Discretization Options
    Model length unit [0=UND, 1=FEET, 2=METERS, 3=CENTIMETERS] set as 2
 End Setting Discretization Options

 Setting Discretization Dimensions
    NLAY = 3
    NROW = 15
    NCOL = 10
 End Setting Discretization Dimensions

 Setting Discretization Griddata
    DELR set from input file
    DELC set from input file
    TOP set from input file
    BOTM set from input file
 End Setting Discretization Griddata

 Setting NPF Options
    Cell-by-cell flow information will be saved to binary file whenever ICBCFL is not zero.
    Specific discharge will be calculated at cell centers and written to DATA-SPDIS in budget file when requested.
 End Setting NPF Options

 Setting NPF Griddata
    ICELLTYPE set from input file
    K set from input file
    K33 set from input file
    K22 not provided.  Setting K22 = K.
 End Setting NPF Griddata


 WEL   -- WEL PACKAGE, VERSION 8, 2/22/2014 INPUT READ FROM MEMPATH: __INPUT__/GWF_TRANSBASE/WEL-1                     

 PROCESSING WEL BASE OPTIONS
 END OF WEL BASE OPTIONS

 PROCESSING WEL OPTIONS
 END OF WEL OPTIONS

 PROCESSING WEL BASE DIMENSIONS
    MAXBOUND =       3
 END OF WEL BASE DIMENSIONS

 CHD   -- CHD PACKAGE, VERSION 8, 2/22/2014 INPUT READ FROM MEMPATH: __INPUT__/GWF_TRANSBASE/CHD-1                     

 PROCESSING CHD BASE OPTIONS
 END OF CHD BASE OPTIONS

 PROCESSING CHD BASE DIMENSIONS
    MAXBOUND =       2
 END OF CHD BASE DIMENSIONS
    STRT set from input file

 STO -- STORAGE PACKAGE, VERSION 1, 5/19/2014 INPUT READ FROM MEMPATH: __INPUT__/GWF_TRANSBASE/STO                       


 PROCESSING STORAGE OPTIONS
    CELL-BY-CELL FLOW INFORMATION WILL BE SAVED TO BINARY FILE WHENEVER ICBCFL IS NOT ZERO.
 END OF STORAGE OPTIONS
    BINARY GRID INFORMATION WILL BE WRITTEN TO:
      UNIT NUMBER: 1026
      FILE NAME: gwf_transbase.dis.grb

 OPENED gwf_transbase.dis.grb
 FILE TYPE:DATA(BINARY)   UNIT 1026   STATUS:REPLACE             
 FORMAT:UNFORMATTED            ACCESS:STREAM              
 ACTION:READWRITE           

      THE LAST TIME STEP WILL BE PRINTED
      THE LAST TIME STEP WILL BE PRINTED
 # File generated by Flopy version 3.9.3 on 06/29/2025 at 15:13:48.

 PROCESSING OC OPTIONS

    BUDGET INFORMATION WILL BE WRITTEN TO:
      UNIT NUMBER: 1027
      FILE NAME: gwf_transbase.bud

 OPENED gwf_transbase.bud
 FILE TYPE:DATA(BINARY)   UNIT 1027   STATUS:REPLACE             
 FORMAT:UNFORMATTED            ACCESS:STREAM              
 ACTION:READWRITE           

    HEAD INFORMATION WILL BE WRITTEN TO:
      UNIT NUMBER: 1028
      FILE NAME: gwf_transbase.hds

 OPENED gwf_transbase.hds
 FILE TYPE:DATA(BINARY)   UNIT 1028   STATUS:REPLACE             
 FORMAT:UNFORMATTED            ACCESS:STREAM              
 ACTION:READWRITE           

 END OF OC OPTIONS

start timestep kper="1" kstp="1" mode="normal"


 BEGIN READING OUTPUT CONTROL FOR STRESS PERIOD 1
      ALL TIME STEPS WILL BE SAVED
      ALL TIME STEPS WILL BE SAVED

 END READING OUTPUT CONTROL FOR STRESS PERIOD 1


 PROCESSING STORAGE PERIOD DATA
 END PROCESSING STORAGE PERIOD DATA


 STRESS PERIOD 1 IS STEADY-STATE

 UBDSV1 SAVING           STO-SS ON UNIT   1027 AT TIME STEP      1, STRESS PERIOD      1
 UBDSV1 SAVING           STO-SY ON UNIT   1027 AT TIME STEP      1, STRESS PERIOD      1
 UBDSV1 SAVING     FLOW-JA-FACE ON UNIT   1027 AT TIME STEP      1, STRESS PERIOD      1
 UBDSV06 SAVING       DATA-SPDIS IN MODEL GWF_TRANSBASE    PACKAGE NPF             CONNECTED TO MODEL GWF_TRANSBASE    PACKAGE NPF              ON UNIT   1027 AT TIME STEP      1, STRESS PERIOD      1
 UBDSV06 SAVING              WEL IN MODEL GWF_TRANSBASE    PACKAGE GWF_TRANSBASE   CONNECTED TO MODEL GWF_TRANSBASE    PACKAGE WEL-1            ON UNIT   1027 AT TIME STEP      1, STRESS PERIOD      1
 UBDSV06 SAVING              CHD IN MODEL GWF_TRANSBASE    PACKAGE GWF_TRANSBASE   CONNECTED TO MODEL GWF_TRANSBASE    PACKAGE CHD-1            ON UNIT   1027 AT TIME STEP      1, STRESS PERIOD      1

 HEAD WILL BE SAVED ON UNIT 1028 AT END OF TIME STEP    1, STRESS PERIOD    1


  VOLUME BUDGET FOR ENTIRE MODEL AT END OF TIME STEP    1, STRESS PERIOD   1
  ---------------------------------------------------------------------------------------------------

     CUMULATIVE VOLUME      L**3       RATES FOR THIS TIME STEP      L**3/T          PACKAGE NAME    
     ------------------                 ------------------------                     ----------------

           IN:                                      IN:
           ---                                      ---
              STO-SS =           0.0000                STO-SS =           0.0000     STORAGE                          
              STO-SY =           0.0000                STO-SY =           0.0000     STORAGE                          
                 WEL =           0.0000                   WEL =           0.0000     WEL-1                            
                 CHD =           0.0000                   CHD =           0.0000     CHD-1                            

            TOTAL IN =           0.0000              TOTAL IN =           0.0000

          OUT:                                     OUT:
          ----                                     ----
              STO-SS =           0.0000                STO-SS =           0.0000     STORAGE                          
              STO-SY =           0.0000                STO-SY =           0.0000     STORAGE                          
                 WEL =           0.0000                   WEL =           0.0000     WEL-1                            
                 CHD =           0.0000                   CHD =           0.0000     CHD-1                            

           TOTAL OUT =           0.0000             TOTAL OUT =           0.0000

            IN - OUT =           0.0000              IN - OUT =           0.0000

 PERCENT DISCREPANCY =           0.00     PERCENT DISCREPANCY =           0.00




         TIME SUMMARY AT END OF TIME STEP    1 IN STRESS PERIOD    1
                    SECONDS     MINUTES      HOURS       DAYS        YEARS
                    -----------------------------------------------------------
   TIME STEP LENGTH  86400.      1440.0      24.000      1.0000     2.73785E-03
 STRESS PERIOD TIME  86400.      1440.0      24.000      1.0000     2.73785E-03
         TOTAL TIME  86400.      1440.0      24.000      1.0000     2.73785E-03


end timestep


start timestep kper="2" kstp="1" mode="normal"


 END OF FILE DETECTED IN OUTPUT CONTROL.
 CURRENT OUTPUT CONTROL SETTINGS WILL BE 
 REPEATED UNTIL THE END OF THE SIMULATION.

 OUTPUT CONTROL FOR STRESS PERIOD 2 IS REPEATED USING SETTINGS FROM A PREVIOUS STRESS PERIOD.


 PROCESSING STORAGE PERIOD DATA
 END PROCESSING STORAGE PERIOD DATA


 STRESS PERIOD 2 IS TRANSIENT

 UBDSV1 SAVING           STO-SS ON UNIT   1027 AT TIME STEP      1, STRESS PERIOD      2
 UBDSV1 SAVING           STO-SY ON UNIT   1027 AT TIME STEP      1, STRESS PERIOD      2
 UBDSV1 SAVING     FLOW-JA-FACE ON UNIT   1027 AT TIME STEP      1, STRESS PERIOD      2
 UBDSV06 SAVING       DATA-SPDIS IN MODEL GWF_TRANSBASE    PACKAGE NPF             CONNECTED TO MODEL GWF_TRANSBASE    PACKAGE NPF              ON UNIT   1027 AT TIME STEP      1, STRESS PERIOD      2
 UBDSV06 SAVING              WEL IN MODEL GWF_TRANSBASE    PACKAGE GWF_TRANSBASE   CONNECTED TO MODEL GWF_TRANSBASE    PACKAGE WEL-1            ON UNIT   1027 AT TIME STEP      1, STRESS PERIOD      2
 UBDSV06 SAVING              CHD IN MODEL GWF_TRANSBASE    PACKAGE GWF_TRANSBASE   CONNECTED TO MODEL GWF_TRANSBASE    PACKAGE CHD-1            ON UNIT   1027 AT TIME STEP      1, STRESS PERIOD      2

 HEAD WILL BE SAVED ON UNIT 1028 AT END OF TIME STEP    1, STRESS PERIOD    2

end timestep


start timestep kper="2" kstp="2" mode="normal"

 UBDSV1 SAVING           STO-SS ON UNIT   1027 AT TIME STEP      2, STRESS PERIOD      2
 UBDSV1 SAVING           STO-SY ON UNIT   1027 AT TIME STEP      2, STRESS PERIOD      2
 UBDSV1 SAVING     FLOW-JA-FACE ON UNIT   1027 AT TIME STEP      2, STRESS PERIOD      2
 UBDSV06 SAVING       DATA-SPDIS IN MODEL GWF_TRANSBASE    PACKAGE NPF             CONNECTED TO MODEL GWF_TRANSBASE    PACKAGE NPF              ON UNIT   1027 AT TIME STEP      2, STRESS PERIOD      2
 UBDSV06 SAVING              WEL IN MODEL GWF_TRANSBASE    PACKAGE GWF_TRANSBASE   CONNECTED TO MODEL GWF_TRANSBASE    PACKAGE WEL-1            ON UNIT   1027 AT TIME STEP      2, STRESS PERIOD      2
 UBDSV06 SAVING              CHD IN MODEL GWF_TRANSBASE    PACKAGE GWF_TRANSBASE   CONNECTED TO MODEL GWF_TRANSBASE    PACKAGE CHD-1            ON UNIT   1027 AT TIME STEP      2, STRESS PERIOD      2

 HEAD WILL BE SAVED ON UNIT 1028 AT END OF TIME STEP    2, STRESS PERIOD    2

end timestep


start timestep kper="2" kstp="3" mode="normal"

 UBDSV1 SAVING           STO-SS ON UNIT   1027 AT TIME STEP      3, STRESS PERIOD      2
 UBDSV1 SAVING           STO-SY ON UNIT   1027 AT TIME STEP      3, STRESS PERIOD      2
 UBDSV1 SAVING     FLOW-JA-FACE ON UNIT   1027 AT TIME STEP      3, STRESS PERIOD      2
 UBDSV06 SAVING       DATA-SPDIS IN MODEL GWF_TRANSBASE    PACKAGE NPF             CONNECTED TO MODEL GWF_TRANSBASE    PACKAGE NPF              ON UNIT   1027 AT TIME STEP      3, STRESS PERIOD      2
 UBDSV06 SAVING              WEL IN MODEL GWF_TRANSBASE    PACKAGE GWF_TRANSBASE   CONNECTED TO MODEL GWF_TRANSBASE    PACKAGE WEL-1            ON UNIT   1027 AT TIME STEP      3, STRESS PERIOD      2
 UBDSV06 SAVING              CHD IN MODEL GWF_TRANSBASE    PACKAGE GWF_TRANSBASE   CONNECTED TO MODEL GWF_TRANSBASE    PACKAGE CHD-1            ON UNIT   1027 AT TIME STEP      3, STRESS PERIOD      2

 HEAD WILL BE SAVED ON UNIT 1028 AT END OF TIME STEP    3, STRESS PERIOD    2

end timestep


start timestep kper="2" kstp="4" mode="normal"

 UBDSV1 SAVING           STO-SS ON UNIT   1027 AT TIME STEP      4, STRESS PERIOD      2
 UBDSV1 SAVING           STO-SY ON UNIT   1027 AT TIME STEP      4, STRESS PERIOD      2
 UBDSV1 SAVING     FLOW-JA-FACE ON UNIT   1027 AT TIME STEP      4, STRESS PERIOD      2
 UBDSV06 SAVING       DATA-SPDIS IN MODEL GWF_TRANSBASE    PACKAGE NPF             CONNECTED TO MODEL GWF_TRANSBASE    PACKAGE NPF              ON UNIT   1027 AT TIME STEP      4, STRESS PERIOD      2
 UBDSV06 SAVING              WEL IN MODEL GWF_TRANSBASE    PACKAGE GWF_TRANSBASE   CONNECTED TO MODEL GWF_TRANSBASE    PACKAGE WEL-1            ON UNIT   1027 AT TIME STEP      4, STRESS PERIOD      2
 UBDSV06 SAVING              CHD IN MODEL GWF_TRANSBASE    PACKAGE GWF_TRANSBASE   CONNECTED TO MODEL GWF_TRANSBASE    PACKAGE CHD-1            ON UNIT   1027 AT TIME STEP      4, STRESS PERIOD      2

 HEAD WILL BE SAVED ON UNIT 1028 AT END OF TIME STEP    4, STRESS PERIOD    2

end timestep


start timestep kper="2" kstp="5" mode="normal"

 UBDSV1 SAVING           STO-SS ON UNIT   1027 AT TIME STEP      5, STRESS PERIOD      2
 UBDSV1 SAVING           STO-SY ON UNIT   1027 AT TIME STEP      5, STRESS PERIOD      2
 UBDSV1 SAVING     FLOW-JA-FACE ON UNIT   1027 AT TIME STEP      5, STRESS PERIOD      2
 UBDSV06 SAVING       DATA-SPDIS IN MODEL GWF_TRANSBASE    PACKAGE NPF             CONNECTED TO MODEL GWF_TRANSBASE    PACKAGE NPF              ON UNIT   1027 AT TIME STEP      5, STRESS PERIOD      2
 UBDSV06 SAVING              WEL IN MODEL GWF_TRANSBASE    PACKAGE GWF_TRANSBASE   CONNECTED TO MODEL GWF_TRANSBASE    PACKAGE WEL-1            ON UNIT   1027 AT TIME STEP      5, STRESS PERIOD      2
 UBDSV06 SAVING              CHD IN MODEL GWF_TRANSBASE    PACKAGE GWF_TRANSBASE   CONNECTED TO MODEL GWF_TRANSBASE    PACKAGE CHD-1            ON UNIT   1027 AT TIME STEP      5, STRESS PERIOD      2

 HEAD WILL BE SAVED ON UNIT 1028 AT END OF TIME STEP    5, STRESS PERIOD    2

end timestep


start timestep kper="2" kstp="6" mode="normal"

 UBDSV1 SAVING           STO-SS ON UNIT   1027 AT TIME STEP      6, STRESS PERIOD      2
 UBDSV1 SAVING           STO-SY ON UNIT   1027 AT TIME STEP      6, STRESS PERIOD      2
 UBDSV1 SAVING     FLOW-JA-FACE ON UNIT   1027 AT TIME STEP      6, STRESS PERIOD      2
 UBDSV06 SAVING       DATA-SPDIS IN MODEL GWF_TRANSBASE    PACKAGE NPF             CONNECTED TO MODEL GWF_TRANSBASE    PACKAGE NPF              ON UNIT   1027 AT TIME STEP      6, STRESS PERIOD      2
 UBDSV06 SAVING              WEL IN MODEL GWF_TRANSBASE    PACKAGE GWF_TRANSBASE   CONNECTED TO MODEL GWF_TRANSBASE    PACKAGE WEL-1            ON UNIT   1027 AT TIME STEP      6, STRESS PERIOD      2
 UBDSV06 SAVING              CHD IN MODEL GWF_TRANSBASE    PACKAGE GWF_TRANSBASE   CONNECTED TO MODEL GWF_TRANSBASE    PACKAGE CHD-1            ON UNIT   1027 AT TIME STEP      6, STRESS PERIOD      2

 HEAD WILL BE SAVED ON UNIT 1028 AT END OF TIME STEP    6, STRESS PERIOD    2

end timestep


start timestep kper="2" kstp="7" mode="normal"

 UBDSV1 SAVING           STO-SS ON UNIT   1027 AT TIME STEP      7, STRESS PERIOD      2
 UBDSV1 SAVING           STO-SY ON UNIT   1027 AT TIME STEP      7, STRESS PERIOD      2
 UBDSV1 SAVING     FLOW-JA-FACE ON UNIT   1027 AT TIME STEP      7, STRESS PERIOD      2
 UBDSV06 SAVING       DATA-SPDIS IN MODEL GWF_TRANSBASE    PACKAGE NPF             CONNECTED TO MODEL GWF_TRANSBASE    PACKAGE NPF              ON UNIT   1027 AT TIME STEP      7, STRESS PERIOD      2
 UBDSV06 SAVING              WEL IN MODEL GWF_TRANSBASE    PACKAGE GWF_TRANSBASE   CONNECTED TO MODEL GWF_TRANSBASE    PACKAGE WEL-1            ON UNIT   1027 AT TIME STEP      7, STRESS PERIOD      2
 UBDSV06 SAVING              CHD IN MODEL GWF_TRANSBASE    PACKAGE GWF_TRANSBASE   CONNECTED TO MODEL GWF_TRANSBASE    PACKAGE CHD-1            ON UNIT   1027 AT TIME STEP      7, STRESS PERIOD      2

 HEAD WILL BE SAVED ON UNIT 1028 AT END OF TIME STEP    7, STRESS PERIOD    2


  VOLUME BUDGET FOR ENTIRE MODEL AT END OF TIME STEP    7, STRESS PERIOD   2
  ---------------------------------------------------------------------------------------------------

     CUMULATIVE VOLUME      L**3       RATES FOR THIS TIME STEP      L**3/T          PACKAGE NAME    
     ------------------                 ------------------------                     ----------------

           IN:                                      IN:
           ---                                      ---
              STO-SS =          67.8751                STO-SS =         814.4718     STORAGE                          
              STO-SY =     1110000.0007                STO-SY =    13319755.1079     STORAGE                          
                 WEL =           0.0000                   WEL =           0.0000     WEL-1                            
                 CHD =       2.8446E-08                   CHD =           0.0000     CHD-1                            

            TOTAL IN =     1110067.8757              TOTAL IN =    13320569.5797

          OUT:                                     OUT:
          ----                                     ----
              STO-SS =    17876719.3457                STO-SS =   214520632.1489     STORAGE                          
              STO-SY =     1250000.0007                STO-SY =    15000000.0082     STORAGE                          
                 WEL =    10904190.7763                   WEL =   130849938.1666     WEL-1                            
                 CHD =     1130076.9463                   CHD =    13560923.3557     CHD-1                            

           TOTAL OUT =    31160987.0690             TOTAL OUT =   373931493.6794

            IN - OUT =   -30050919.1933              IN - OUT =  -360610924.0997

 PERCENT DISCREPANCY =        -186.24     PERCENT DISCREPANCY =        -186.24




         TIME SUMMARY AT END OF TIME STEP    7 IN STRESS PERIOD    2
                    SECONDS     MINUTES      HOURS       DAYS        YEARS
                    -----------------------------------------------------------
   TIME STEP LENGTH  7200.0      120.00      2.0000     8.33333E-02 2.28154E-04
 STRESS PERIOD TIME  50400.      840.00      14.000     0.58333     1.59708E-03
         TOTAL TIME 1.36800E+05  2280.0      38.000      1.5833     4.33493E-03


         ****FAILED TO MEET SOLVER CONVERGENCE CRITERIA IN TIME STEP 7 OF STRESS PERIOD 2****

end timestep


start timestep kper="2" kstp="8" mode="normal"

 UBDSV1 SAVING           STO-SS ON UNIT   1027 AT TIME STEP      8, STRESS PERIOD      2
 UBDSV1 SAVING           STO-SY ON UNIT   1027 AT TIME STEP      8, STRESS PERIOD      2
 UBDSV1 SAVING     FLOW-JA-FACE ON UNIT   1027 AT TIME STEP      8, STRESS PERIOD      2
 UBDSV06 SAVING       DATA-SPDIS IN MODEL GWF_TRANSBASE    PACKAGE NPF             CONNECTED TO MODEL GWF_TRANSBASE    PACKAGE NPF              ON UNIT   1027 AT TIME STEP      8, STRESS PERIOD      2
 UBDSV06 SAVING              WEL IN MODEL GWF_TRANSBASE    PACKAGE GWF_TRANSBASE   CONNECTED TO MODEL GWF_TRANSBASE    PACKAGE WEL-1            ON UNIT   1027 AT TIME STEP      8, STRESS PERIOD      2
 UBDSV06 SAVING              CHD IN MODEL GWF_TRANSBASE    PACKAGE GWF_TRANSBASE   CONNECTED TO MODEL GWF_TRANSBASE    PACKAGE CHD-1            ON UNIT   1027 AT TIME STEP      8, STRESS PERIOD      2

 HEAD WILL BE SAVED ON UNIT 1028 AT END OF TIME STEP    8, STRESS PERIOD    2


  VOLUME BUDGET FOR ENTIRE MODEL AT END OF TIME STEP    8, STRESS PERIOD   2
  ---------------------------------------------------------------------------------------------------

     CUMULATIVE VOLUME      L**3       RATES FOR THIS TIME STEP      L**3/T          PACKAGE NAME    
     ------------------                 ------------------------                     ----------------

           IN:                                      IN:
           ---                                      ---
              STO-SS =     8208826.7408                STO-SS =    98505106.3891     STORAGE                          
              STO-SY =     3210000.0007                STO-SY =    25200000.0000     STORAGE                          
                 WEL =           0.0000                   WEL =           0.0000     WEL-1                            
                 CHD =       2.8446E-08                   CHD =           0.0000     CHD-1                            

            TOTAL IN =    11418826.7415              TOTAL IN =   123705106.3891

          OUT:                                     OUT:
          ----                                     ----
              STO-SS =    17876719.3457                STO-SS =           0.0000     STORAGE                          
              STO-SY =     1250000.0007                STO-SY =           0.0000     STORAGE                          
                 WEL =    20551539.8726                   WEL =   115768189.1561     WEL-1                            
                 CHD =     1816440.1626                   CHD =     8236358.5956     CHD-1                            

           TOTAL OUT =    41494699.3817             TOTAL OUT =   124004547.7518

            IN - OUT =   -30075872.6402              IN - OUT =     -299441.3626

 PERCENT DISCREPANCY =        -113.68     PERCENT DISCREPANCY =          -0.24




         TIME SUMMARY AT END OF TIME STEP    8 IN STRESS PERIOD    2
                    SECONDS     MINUTES      HOURS       DAYS        YEARS
                    -----------------------------------------------------------
   TIME STEP LENGTH  7200.0      120.00      2.0000     8.33333E-02 2.28154E-04
 STRESS PERIOD TIME  57600.      960.00      16.000     0.66667     1.82523E-03
         TOTAL TIME 1.44000E+05  2400.0      40.000      1.6667     4.56308E-03


         ****FAILED TO MEET SOLVER CONVERGENCE CRITERIA IN TIME STEP 8 OF STRESS PERIOD 2****

end timestep


start timestep kper="2" kstp="9" mode="normal"

 UBDSV1 SAVING           STO-SS ON UNIT   1027 AT TIME STEP      9, STRESS PERIOD      2
 UBDSV1 SAVING           STO-SY ON UNIT   1027 AT TIME STEP      9, STRESS PERIOD      2
 UBDSV1 SAVING     FLOW-JA-FACE ON UNIT   1027 AT TIME STEP      9, STRESS PERIOD      2
 UBDSV06 SAVING       DATA-SPDIS IN MODEL GWF_TRANSBASE    PACKAGE NPF             CONNECTED TO MODEL GWF_TRANSBASE    PACKAGE NPF              ON UNIT   1027 AT TIME STEP      9, STRESS PERIOD      2
 UBDSV06 SAVING              WEL IN MODEL GWF_TRANSBASE    PACKAGE GWF_TRANSBASE   CONNECTED TO MODEL GWF_TRANSBASE    PACKAGE WEL-1            ON UNIT   1027 AT TIME STEP      9, STRESS PERIOD      2
 UBDSV06 SAVING              CHD IN MODEL GWF_TRANSBASE    PACKAGE GWF_TRANSBASE   CONNECTED TO MODEL GWF_TRANSBASE    PACKAGE CHD-1            ON UNIT   1027 AT TIME STEP      9, STRESS PERIOD      2

 HEAD WILL BE SAVED ON UNIT 1028 AT END OF TIME STEP    9, STRESS PERIOD    2


  VOLUME BUDGET FOR ENTIRE MODEL AT END OF TIME STEP    9, STRESS PERIOD   2
  ---------------------------------------------------------------------------------------------------

     CUMULATIVE VOLUME      L**3       RATES FOR THIS TIME STEP      L**3/T          PACKAGE NAME    
     ------------------                 ------------------------                     ----------------

           IN:                                      IN:
           ---                                      ---
              STO-SS =    10384355.5158                STO-SS =    26106345.2992     STORAGE                          
              STO-SY =     3290000.0007                STO-SY =      960000.0000     STORAGE                          
                 WEL =           0.0000                   WEL =           0.0000     WEL-1                            
                 CHD =       2.8446E-08                   CHD =           0.0000     CHD-1                            

            TOTAL IN =    13674355.5164              TOTAL IN =    27066345.2992

          OUT:                                     OUT:
          ----                                     ----
              STO-SS =    19208006.6058                STO-SS =    15975447.1203     STORAGE                          
              STO-SY =     1650000.0007                STO-SY =     4800000.0000     STORAGE                          
                 WEL =    24921772.0681                   WEL =    52442786.3452     WEL-1                            
                 CHD =     2428412.1991                   CHD =     7343664.4384     CHD-1                            

           TOTAL OUT =    48208190.8737             TOTAL OUT =    80561897.9039

            IN - OUT =   -34533835.3572              IN - OUT =   -53495552.6047

 PERCENT DISCREPANCY =        -111.61     PERCENT DISCREPANCY =         -99.41




         TIME SUMMARY AT END OF TIME STEP    9 IN STRESS PERIOD    2
                    SECONDS     MINUTES      HOURS       DAYS        YEARS
                    -----------------------------------------------------------
   TIME STEP LENGTH  7200.0      120.00      2.0000     8.33333E-02 2.28154E-04
 STRESS PERIOD TIME  64800.      1080.0      18.000     0.75000     2.05339E-03
         TOTAL TIME 1.51200E+05  2520.0      42.000      1.7500     4.79124E-03


         ****FAILED TO MEET SOLVER CONVERGENCE CRITERIA IN TIME STEP 9 OF STRESS PERIOD 2****

end timestep


start timestep kper="2" kstp="10" mode="normal"

 UBDSV1 SAVING           STO-SS ON UNIT   1027 AT TIME STEP     10, STRESS PERIOD      2
 UBDSV1 SAVING           STO-SY ON UNIT   1027 AT TIME STEP     10, STRESS PERIOD      2
 UBDSV1 SAVING     FLOW-JA-FACE ON UNIT   1027 AT TIME STEP     10, STRESS PERIOD      2
 UBDSV06 SAVING       DATA-SPDIS IN MODEL GWF_TRANSBASE    PACKAGE NPF             CONNECTED TO MODEL GWF_TRANSBASE    PACKAGE NPF              ON UNIT   1027 AT TIME STEP     10, STRESS PERIOD      2
 UBDSV06 SAVING              WEL IN MODEL GWF_TRANSBASE    PACKAGE GWF_TRANSBASE   CONNECTED TO MODEL GWF_TRANSBASE    PACKAGE WEL-1            ON UNIT   1027 AT TIME STEP     10, STRESS PERIOD      2
 UBDSV06 SAVING              CHD IN MODEL GWF_TRANSBASE    PACKAGE GWF_TRANSBASE   CONNECTED TO MODEL GWF_TRANSBASE    PACKAGE CHD-1            ON UNIT   1027 AT TIME STEP     10, STRESS PERIOD      2

 HEAD WILL BE SAVED ON UNIT 1028 AT END OF TIME STEP   10, STRESS PERIOD    2


  VOLUME BUDGET FOR ENTIRE MODEL AT END OF TIME STEP   10, STRESS PERIOD   2
  ---------------------------------------------------------------------------------------------------

     CUMULATIVE VOLUME      L**3       RATES FOR THIS TIME STEP      L**3/T          PACKAGE NAME    
     ------------------                 ------------------------                     ----------------

           IN:                                      IN:
           ---                                      ---
              STO-SS =    13053187.3302                STO-SS =    32025981.7737     STORAGE                          
              STO-SY =     3290000.0007                STO-SY =           0.0000     STORAGE                          
                 WEL =           0.0000                   WEL =           0.0000     WEL-1                            
                 CHD =       2.8446E-08                   CHD =           0.0000     CHD-1                            

            TOTAL IN =    16343187.3309              TOTAL IN =    32025981.7737

          OUT:                                     OUT:
          ----                                     ----
              STO-SS =    19210770.6500                STO-SS =       33168.5309     STORAGE                          
              STO-SY =     1650000.0007                STO-SY =           0.0000     STORAGE                          
                 WEL =    28278154.6500                   WEL =    40276590.9832     WEL-1                            
                 CHD =     2834319.9169                   CHD =     4870892.6128     CHD-1                            

           TOTAL OUT =    51973245.2176             TOTAL OUT =    45180652.1268

            IN - OUT =   -35630057.8867              IN - OUT =   -13154670.3531

 PERCENT DISCREPANCY =        -104.31     PERCENT DISCREPANCY =         -34.08




         TIME SUMMARY AT END OF TIME STEP   10 IN STRESS PERIOD    2
                    SECONDS     MINUTES      HOURS       DAYS        YEARS
                    -----------------------------------------------------------
   TIME STEP LENGTH  7200.0      120.00      2.0000     8.33333E-02 2.28154E-04
 STRESS PERIOD TIME  72000.      1200.0      20.000     0.83333     2.28154E-03
         TOTAL TIME 1.58400E+05  2640.0      44.000      1.8333     5.01939E-03


         ****FAILED TO MEET SOLVER CONVERGENCE CRITERIA IN TIME STEP 10 OF STRESS PERIOD 2****

end timestep


start timestep kper="2" kstp="11" mode="normal"

 UBDSV1 SAVING           STO-SS ON UNIT   1027 AT TIME STEP     11, STRESS PERIOD      2
 UBDSV1 SAVING           STO-SY ON UNIT   1027 AT TIME STEP     11, STRESS PERIOD      2
 UBDSV1 SAVING     FLOW-JA-FACE ON UNIT   1027 AT TIME STEP     11, STRESS PERIOD      2
 UBDSV06 SAVING       DATA-SPDIS IN MODEL GWF_TRANSBASE    PACKAGE NPF             CONNECTED TO MODEL GWF_TRANSBASE    PACKAGE NPF              ON UNIT   1027 AT TIME STEP     11, STRESS PERIOD      2
 UBDSV06 SAVING              WEL IN MODEL GWF_TRANSBASE    PACKAGE GWF_TRANSBASE   CONNECTED TO MODEL GWF_TRANSBASE    PACKAGE WEL-1            ON UNIT   1027 AT TIME STEP     11, STRESS PERIOD      2
 UBDSV06 SAVING              CHD IN MODEL GWF_TRANSBASE    PACKAGE GWF_TRANSBASE   CONNECTED TO MODEL GWF_TRANSBASE    PACKAGE CHD-1            ON UNIT   1027 AT TIME STEP     11, STRESS PERIOD      2

 HEAD WILL BE SAVED ON UNIT 1028 AT END OF TIME STEP   11, STRESS PERIOD    2


  VOLUME BUDGET FOR ENTIRE MODEL AT END OF TIME STEP   11, STRESS PERIOD   2
  ---------------------------------------------------------------------------------------------------

     CUMULATIVE VOLUME      L**3       RATES FOR THIS TIME STEP      L**3/T          PACKAGE NAME    
     ------------------                 ------------------------                     ----------------

           IN:                                      IN:
           ---                                      ---
              STO-SS =    14183664.6287                STO-SS =    13565727.5817     STORAGE                          
              STO-SY =     3290000.0007                STO-SY =           0.0000     STORAGE                          
                 WEL =           0.0000                   WEL =           0.0000     WEL-1                            
                 CHD =       2.8446E-08                   CHD =           0.0000     CHD-1                            

            TOTAL IN =    17473664.6294              TOTAL IN =    13565727.5817

          OUT:                                     OUT:
          ----                                     ----
              STO-SS =    19681344.2917                STO-SS =     5646883.7004     STORAGE                          
              STO-SY =     2010000.0007                STO-SY =     4320000.0000     STORAGE                          
                 WEL =    30855895.9049                   WEL =    30932895.0585     WEL-1                            
                 CHD =     3158185.7241                   CHD =     3886389.6862     CHD-1                            

           TOTAL OUT =    55705425.9213             TOTAL OUT =    44786168.4451

            IN - OUT =   -38231761.2919              IN - OUT =   -31220440.8634

 PERCENT DISCREPANCY =        -104.49     PERCENT DISCREPANCY =        -107.01




         TIME SUMMARY AT END OF TIME STEP   11 IN STRESS PERIOD    2
                    SECONDS     MINUTES      HOURS       DAYS        YEARS
                    -----------------------------------------------------------
   TIME STEP LENGTH  7200.0      120.00      2.0000     8.33333E-02 2.28154E-04
 STRESS PERIOD TIME  79200.      1320.0      22.000     0.91667     2.50970E-03
         TOTAL TIME 1.65600E+05  2760.0      46.000      1.9167     5.24755E-03


         ****FAILED TO MEET SOLVER CONVERGENCE CRITERIA IN TIME STEP 11 OF STRESS PERIOD 2****

end timestep


start timestep kper="2" kstp="12" mode="normal"

 UBDSV1 SAVING           STO-SS ON UNIT   1027 AT TIME STEP     12, STRESS PERIOD      2
 UBDSV1 SAVING           STO-SY ON UNIT   1027 AT TIME STEP     12, STRESS PERIOD      2
 UBDSV1 SAVING     FLOW-JA-FACE ON UNIT   1027 AT TIME STEP     12, STRESS PERIOD      2
 UBDSV06 SAVING       DATA-SPDIS IN MODEL GWF_TRANSBASE    PACKAGE NPF             CONNECTED TO MODEL GWF_TRANSBASE    PACKAGE NPF              ON UNIT   1027 AT TIME STEP     12, STRESS PERIOD      2
 UBDSV06 SAVING              WEL IN MODEL GWF_TRANSBASE    PACKAGE GWF_TRANSBASE   CONNECTED TO MODEL GWF_TRANSBASE    PACKAGE WEL-1            ON UNIT   1027 AT TIME STEP     12, STRESS PERIOD      2
 UBDSV06 SAVING              CHD IN MODEL GWF_TRANSBASE    PACKAGE GWF_TRANSBASE   CONNECTED TO MODEL GWF_TRANSBASE    PACKAGE CHD-1            ON UNIT   1027 AT TIME STEP     12, STRESS PERIOD      2

 HEAD WILL BE SAVED ON UNIT 1028 AT END OF TIME STEP   12, STRESS PERIOD    2


  VOLUME BUDGET FOR ENTIRE MODEL AT END OF TIME STEP   12, STRESS PERIOD   2
  ---------------------------------------------------------------------------------------------------

     CUMULATIVE VOLUME      L**3       RATES FOR THIS TIME STEP      L**3/T          PACKAGE NAME    
     ------------------                 ------------------------                     ----------------

           IN:                                      IN:
           ---                                      ---
              STO-SS =    15359353.6315                STO-SS =    14108268.0332     STORAGE                          
              STO-SY =     3390000.0007                STO-SY =     1200000.0000     STORAGE                          
                 WEL =           0.0000                   WEL =           0.0000     WEL-1                            
                 CHD =       2.8446E-08                   CHD =           0.0000     CHD-1                            

            TOTAL IN =    18749353.6322              TOTAL IN =    15308268.0332

          OUT:                                     OUT:
          ----                                     ----
              STO-SS =    19939903.2240                STO-SS =     3102707.1879     STORAGE                          
              STO-SY =     2130000.0007                STO-SY =     1440000.0000     STORAGE                          
                 WEL =    33433637.1598                   WEL =    30932895.0585     WEL-1                            
                 CHD =     3415819.7306                   CHD =     3091608.0790     CHD-1                            

           TOTAL OUT =    58919360.1151             TOTAL OUT =    38567210.3254

            IN - OUT =   -40170006.4830              IN - OUT =   -23258942.2922

 PERCENT DISCREPANCY =        -103.44     PERCENT DISCREPANCY =         -86.34




         TIME SUMMARY AT END OF TIME STEP   12 IN STRESS PERIOD    2
                    SECONDS     MINUTES      HOURS       DAYS        YEARS
                    -----------------------------------------------------------
   TIME STEP LENGTH  7200.0      120.00      2.0000     8.33333E-02 2.28154E-04
 STRESS PERIOD TIME  86400.      1440.0      24.000      1.0000     2.73785E-03
         TOTAL TIME 1.72800E+05  2880.0      48.000      2.0000     5.47570E-03


         ****FAILED TO MEET SOLVER CONVERGENCE CRITERIA IN TIME STEP 12 OF STRESS PERIOD 2****

end timestep


start timestep kper="2" kstp="13" mode="normal"

 UBDSV1 SAVING           STO-SS ON UNIT   1027 AT TIME STEP     13, STRESS PERIOD      2
 UBDSV1 SAVING           STO-SY ON UNIT   1027 AT TIME STEP     13, STRESS PERIOD      2
 UBDSV1 SAVING     FLOW-JA-FACE ON UNIT   1027 AT TIME STEP     13, STRESS PERIOD      2
 UBDSV06 SAVING       DATA-SPDIS IN MODEL GWF_TRANSBASE    PACKAGE NPF             CONNECTED TO MODEL GWF_TRANSBASE    PACKAGE NPF              ON UNIT   1027 AT TIME STEP     13, STRESS PERIOD      2
 UBDSV06 SAVING              WEL IN MODEL GWF_TRANSBASE    PACKAGE GWF_TRANSBASE   CONNECTED TO MODEL GWF_TRANSBASE    PACKAGE WEL-1            ON UNIT   1027 AT TIME STEP     13, STRESS PERIOD      2
 UBDSV06 SAVING              CHD IN MODEL GWF_TRANSBASE    PACKAGE GWF_TRANSBASE   CONNECTED TO MODEL GWF_TRANSBASE    PACKAGE CHD-1            ON UNIT   1027 AT TIME STEP     13, STRESS PERIOD      2

 HEAD WILL BE SAVED ON UNIT 1028 AT END OF TIME STEP   13, STRESS PERIOD    2


  VOLUME BUDGET FOR ENTIRE MODEL AT END OF TIME STEP   13, STRESS PERIOD   2
  ---------------------------------------------------------------------------------------------------

     CUMULATIVE VOLUME      L**3       RATES FOR THIS TIME STEP      L**3/T          PACKAGE NAME    
     ------------------                 ------------------------                     ----------------

           IN:                                      IN:
           ---                                      ---
              STO-SS =    15963334.8659                STO-SS =     7247774.8135     STORAGE                          
              STO-SY =     3390000.0007                STO-SY =           0.0000     STORAGE                          
                 WEL =           0.0000                   WEL =           0.0000     WEL-1                            
                 CHD =       2.8446E-08                   CHD =           0.0000     CHD-1                            

            TOTAL IN =    19353334.8666              TOTAL IN =     7247774.8135

          OUT:                                     OUT:
          ----                                     ----
              STO-SS =    20407600.5217                STO-SS =     5612367.5720     STORAGE                          
              STO-SY =     3190000.0007                STO-SY =    12720000.0000     STORAGE                          
                 WEL =    34954109.1048                   WEL =    18245663.3401     WEL-1                            
                 CHD =     3641897.4562                   CHD =     2712932.7068     CHD-1                            

           TOTAL OUT =    62193607.0834             TOTAL OUT =    39290963.6189

            IN - OUT =   -42840272.2167              IN - OUT =   -32043188.8054

 PERCENT DISCREPANCY =        -105.07     PERCENT DISCREPANCY =        -137.71




         TIME SUMMARY AT END OF TIME STEP   13 IN STRESS PERIOD    2
                    SECONDS     MINUTES      HOURS       DAYS        YEARS
                    -----------------------------------------------------------
   TIME STEP LENGTH  7200.0      120.00      2.0000     8.33333E-02 2.28154E-04
 STRESS PERIOD TIME  93600.      1560.0      26.000      1.0833     2.96601E-03
         TOTAL TIME 1.80000E+05  3000.0      50.000      2.0833     5.70386E-03


         ****FAILED TO MEET SOLVER CONVERGENCE CRITERIA IN TIME STEP 13 OF STRESS PERIOD 2****

end timestep


start timestep kper="2" kstp="14" mode="normal"

 UBDSV1 SAVING           STO-SS ON UNIT   1027 AT TIME STEP     14, STRESS PERIOD      2
 UBDSV1 SAVING           STO-SY ON UNIT   1027 AT TIME STEP     14, STRESS PERIOD      2
 UBDSV1 SAVING     FLOW-JA-FACE ON UNIT   1027 AT TIME STEP     14, STRESS PERIOD      2
 UBDSV06 SAVING       DATA-SPDIS IN MODEL GWF_TRANSBASE    PACKAGE NPF             CONNECTED TO MODEL GWF_TRANSBASE    PACKAGE NPF              ON UNIT   1027 AT TIME STEP     14, STRESS PERIOD      2
 UBDSV06 SAVING              WEL IN MODEL GWF_TRANSBASE    PACKAGE GWF_TRANSBASE   CONNECTED TO MODEL GWF_TRANSBASE    PACKAGE WEL-1            ON UNIT   1027 AT TIME STEP     14, STRESS PERIOD      2
 UBDSV06 SAVING              CHD IN MODEL GWF_TRANSBASE    PACKAGE GWF_TRANSBASE   CONNECTED TO MODEL GWF_TRANSBASE    PACKAGE CHD-1            ON UNIT   1027 AT TIME STEP     14, STRESS PERIOD      2

 HEAD WILL BE SAVED ON UNIT 1028 AT END OF TIME STEP   14, STRESS PERIOD    2


  VOLUME BUDGET FOR ENTIRE MODEL AT END OF TIME STEP   14, STRESS PERIOD   2
  ---------------------------------------------------------------------------------------------------

     CUMULATIVE VOLUME      L**3       RATES FOR THIS TIME STEP      L**3/T          PACKAGE NAME    
     ------------------                 ------------------------                     ----------------

           IN:                                      IN:
           ---                                      ---
              STO-SS =    16341319.4331                STO-SS =     4535814.8059     STORAGE                          
              STO-SY =     3390000.0007                STO-SY =           0.0000     STORAGE                          
                 WEL =           0.0000                   WEL =           0.0000     WEL-1                            
                 CHD =       2.8446E-08                   CHD =           0.0000     CHD-1                            

            TOTAL IN =    19731319.4338              TOTAL IN =     4535814.8059

          OUT:                                     OUT:
          ----                                     ----
              STO-SS =    21089700.9401                STO-SS =     8185205.0204     STORAGE                          
              STO-SY =     4100000.0007                STO-SY =    10920000.0000     STORAGE                          
                 WEL =    36474581.0498                   WEL =    18245663.3401     WEL-1                            
                 CHD =     3848648.5981                   CHD =     2481013.7031     CHD-1                            

           TOTAL OUT =    65512930.5887             TOTAL OUT =    39831882.0636

            IN - OUT =   -45781611.1549              IN - OUT =   -35296067.2577

 PERCENT DISCREPANCY =        -107.41     PERCENT DISCREPANCY =        -159.11




         TIME SUMMARY AT END OF TIME STEP   14 IN STRESS PERIOD    2
                    SECONDS     MINUTES      HOURS       DAYS        YEARS
                    -----------------------------------------------------------
   TIME STEP LENGTH  7200.0      120.00      2.0000     8.33333E-02 2.28154E-04
 STRESS PERIOD TIME 1.00800E+05  1680.0      28.000      1.1667     3.19416E-03
         TOTAL TIME 1.87200E+05  3120.0      52.000      2.1667     5.93201E-03


         ****FAILED TO MEET SOLVER CONVERGENCE CRITERIA IN TIME STEP 14 OF STRESS PERIOD 2****

end timestep


start timestep kper="2" kstp="15" mode="normal"

 UBDSV1 SAVING           STO-SS ON UNIT   1027 AT TIME STEP     15, STRESS PERIOD      2
 UBDSV1 SAVING           STO-SY ON UNIT   1027 AT TIME STEP     15, STRESS PERIOD      2
 UBDSV1 SAVING     FLOW-JA-FACE ON UNIT   1027 AT TIME STEP     15, STRESS PERIOD      2
 UBDSV06 SAVING       DATA-SPDIS IN MODEL GWF_TRANSBASE    PACKAGE NPF             CONNECTED TO MODEL GWF_TRANSBASE    PACKAGE NPF              ON UNIT   1027 AT TIME STEP     15, STRESS PERIOD      2
 UBDSV06 SAVING              WEL IN MODEL GWF_TRANSBASE    PACKAGE GWF_TRANSBASE   CONNECTED TO MODEL GWF_TRANSBASE    PACKAGE WEL-1            ON UNIT   1027 AT TIME STEP     15, STRESS PERIOD      2
 UBDSV06 SAVING              CHD IN MODEL GWF_TRANSBASE    PACKAGE GWF_TRANSBASE   CONNECTED TO MODEL GWF_TRANSBASE    PACKAGE CHD-1            ON UNIT   1027 AT TIME STEP     15, STRESS PERIOD      2

 HEAD WILL BE SAVED ON UNIT 1028 AT END OF TIME STEP   15, STRESS PERIOD    2


  VOLUME BUDGET FOR ENTIRE MODEL AT END OF TIME STEP   15, STRESS PERIOD   2
  ---------------------------------------------------------------------------------------------------

     CUMULATIVE VOLUME      L**3       RATES FOR THIS TIME STEP      L**3/T          PACKAGE NAME    
     ------------------                 ------------------------                     ----------------

           IN:                                      IN:
           ---                                      ---
              STO-SS =    17326739.4313                STO-SS =    11825039.9789     STORAGE                          
              STO-SY =     3390000.0007                STO-SY =           0.0000     STORAGE                          
                 WEL =           0.0000                   WEL =           0.0000     WEL-1                            
                 CHD =       2.8446E-08                   CHD =           0.0000     CHD-1                            

            TOTAL IN =    20716739.4320              TOTAL IN =    11825039.9789

          OUT:                                     OUT:
          ----                                     ----
              STO-SS =    21097547.6636                STO-SS =       94160.6828     STORAGE                          
              STO-SY =     4100000.0007                STO-SY =           0.0000     STORAGE                          
                 WEL =    37995052.9948                   WEL =    18245663.3401     WEL-1                            
                 CHD =     4027235.2777                   CHD =     2143040.1547     CHD-1                            

           TOTAL OUT =    67219835.9368             TOTAL OUT =    20482864.1776

            IN - OUT =   -46503096.5048              IN - OUT =    -8657824.1986

 PERCENT DISCREPANCY =        -105.77     PERCENT DISCREPANCY =         -53.60




         TIME SUMMARY AT END OF TIME STEP   15 IN STRESS PERIOD    2
                    SECONDS     MINUTES      HOURS       DAYS        YEARS
                    -----------------------------------------------------------
   TIME STEP LENGTH  7200.0      120.00      2.0000     8.33333E-02 2.28154E-04
 STRESS PERIOD TIME 1.08000E+05  1800.0      30.000      1.2500     3.42231E-03
         TOTAL TIME 1.94400E+05  3240.0      54.000      2.2500     6.16016E-03


         ****FAILED TO MEET SOLVER CONVERGENCE CRITERIA IN TIME STEP 15 OF STRESS PERIOD 2****

end timestep


start timestep kper="2" kstp="16" mode="normal"

 UBDSV1 SAVING           STO-SS ON UNIT   1027 AT TIME STEP     16, STRESS PERIOD      2
 UBDSV1 SAVING           STO-SY ON UNIT   1027 AT TIME STEP     16, STRESS PERIOD      2
 UBDSV1 SAVING     FLOW-JA-FACE ON UNIT   1027 AT TIME STEP     16, STRESS PERIOD      2
 UBDSV06 SAVING       DATA-SPDIS IN MODEL GWF_TRANSBASE    PACKAGE NPF             CONNECTED TO MODEL GWF_TRANSBASE    PACKAGE NPF              ON UNIT   1027 AT TIME STEP     16, STRESS PERIOD      2
 UBDSV06 SAVING              WEL IN MODEL GWF_TRANSBASE    PACKAGE GWF_TRANSBASE   CONNECTED TO MODEL GWF_TRANSBASE    PACKAGE WEL-1            ON UNIT   1027 AT TIME STEP     16, STRESS PERIOD      2
 UBDSV06 SAVING              CHD IN MODEL GWF_TRANSBASE    PACKAGE GWF_TRANSBASE   CONNECTED TO MODEL GWF_TRANSBASE    PACKAGE CHD-1            ON UNIT   1027 AT TIME STEP     16, STRESS PERIOD      2

 HEAD WILL BE SAVED ON UNIT 1028 AT END OF TIME STEP   16, STRESS PERIOD    2


  VOLUME BUDGET FOR ENTIRE MODEL AT END OF TIME STEP   16, STRESS PERIOD   2
  ---------------------------------------------------------------------------------------------------

     CUMULATIVE VOLUME      L**3       RATES FOR THIS TIME STEP      L**3/T          PACKAGE NAME    
     ------------------                 ------------------------                     ----------------

           IN:                                      IN:
           ---                                      ---
              STO-SS =    17584570.2730                STO-SS =     3093970.0994     STORAGE                          
              STO-SY =     3390000.0007                STO-SY =           0.0000     STORAGE                          
                 WEL =           0.0000                   WEL =           0.0000     WEL-1                            
                 CHD =       2.8446E-08                   CHD =           0.0000     CHD-1                            

            TOTAL IN =    20974570.2736              TOTAL IN =     3093970.0994

          OUT:                                     OUT:
          ----                                     ----
              STO-SS =    21478366.1564                STO-SS =     4569821.9136     STORAGE                          
              STO-SY =     4290000.0007                STO-SY =     2280000.0000     STORAGE                          
                 WEL =    39515524.9398                   WEL =    18245663.3401     WEL-1                            
                 CHD =     4188145.7714                   CHD =     1930925.9245     CHD-1                            

           TOTAL OUT =    69472036.8683             TOTAL OUT =    27026411.1782

            IN - OUT =   -48497466.5947              IN - OUT =   -23932441.0789

 PERCENT DISCREPANCY =        -107.24     PERCENT DISCREPANCY =        -158.91




         TIME SUMMARY AT END OF TIME STEP   16 IN STRESS PERIOD    2
                    SECONDS     MINUTES      HOURS       DAYS        YEARS
                    -----------------------------------------------------------
   TIME STEP LENGTH  7200.0      120.00      2.0000     8.33333E-02 2.28154E-04
 STRESS PERIOD TIME 1.15200E+05  1920.0      32.000      1.3333     3.65047E-03
         TOTAL TIME 2.01600E+05  3360.0      56.000      2.3333     6.38832E-03


         ****FAILED TO MEET SOLVER CONVERGENCE CRITERIA IN TIME STEP 16 OF STRESS PERIOD 2****

end timestep


start timestep kper="2" kstp="17" mode="normal"

 UBDSV1 SAVING           STO-SS ON UNIT   1027 AT TIME STEP     17, STRESS PERIOD      2
 UBDSV1 SAVING           STO-SY ON UNIT   1027 AT TIME STEP     17, STRESS PERIOD      2
 UBDSV1 SAVING     FLOW-JA-FACE ON UNIT   1027 AT TIME STEP     17, STRESS PERIOD      2
 UBDSV06 SAVING       DATA-SPDIS IN MODEL GWF_TRANSBASE    PACKAGE NPF             CONNECTED TO MODEL GWF_TRANSBASE    PACKAGE NPF              ON UNIT   1027 AT TIME STEP     17, STRESS PERIOD      2
 UBDSV06 SAVING              WEL IN MODEL GWF_TRANSBASE    PACKAGE GWF_TRANSBASE   CONNECTED TO MODEL GWF_TRANSBASE    PACKAGE WEL-1            ON UNIT   1027 AT TIME STEP     17, STRESS PERIOD      2
 UBDSV06 SAVING              CHD IN MODEL GWF_TRANSBASE    PACKAGE GWF_TRANSBASE   CONNECTED TO MODEL GWF_TRANSBASE    PACKAGE CHD-1            ON UNIT   1027 AT TIME STEP     17, STRESS PERIOD      2

 HEAD WILL BE SAVED ON UNIT 1028 AT END OF TIME STEP   17, STRESS PERIOD    2


  VOLUME BUDGET FOR ENTIRE MODEL AT END OF TIME STEP   17, STRESS PERIOD   2
  ---------------------------------------------------------------------------------------------------

     CUMULATIVE VOLUME      L**3       RATES FOR THIS TIME STEP      L**3/T          PACKAGE NAME    
     ------------------                 ------------------------                     ----------------

           IN:                                      IN:
           ---                                      ---
              STO-SS =    18457271.2095                STO-SS =    10472411.2381     STORAGE                          
              STO-SY =     3520000.0007                STO-SY =     1560000.0000     STORAGE                          
                 WEL =           0.0000                   WEL =           0.0000     WEL-1                            
                 CHD =       2.8446E-08                   CHD =           0.0000     CHD-1                            

            TOTAL IN =    21977271.2101              TOTAL IN =    12032411.2381

          OUT:                                     OUT:
          ----                                     ----
              STO-SS =    21478366.1564                STO-SS =           0.0000     STORAGE                          
              STO-SY =     4290000.0007                STO-SY =           0.0000     STORAGE                          
                 WEL =    41035996.8848                   WEL =    18245663.3401     WEL-1                            
                 CHD =     4328083.5005                   CHD =     1679252.7495     CHD-1                            

           TOTAL OUT =    71132446.5424             TOTAL OUT =    19924916.0895

            IN - OUT =   -49155175.3323              IN - OUT =    -7892504.8515

 PERCENT DISCREPANCY =        -105.59     PERCENT DISCREPANCY =         -49.39




         TIME SUMMARY AT END OF TIME STEP   17 IN STRESS PERIOD    2
                    SECONDS     MINUTES      HOURS       DAYS        YEARS
                    -----------------------------------------------------------
   TIME STEP LENGTH  7200.0      120.00      2.0000     8.33333E-02 2.28154E-04
 STRESS PERIOD TIME 1.22400E+05  2040.0      34.000      1.4167     3.87862E-03
         TOTAL TIME 2.08800E+05  3480.0      58.000      2.4167     6.61647E-03


         ****FAILED TO MEET SOLVER CONVERGENCE CRITERIA IN TIME STEP 17 OF STRESS PERIOD 2****

end timestep


start timestep kper="2" kstp="18" mode="normal"

 UBDSV1 SAVING           STO-SS ON UNIT   1027 AT TIME STEP     18, STRESS PERIOD      2
 UBDSV1 SAVING           STO-SY ON UNIT   1027 AT TIME STEP     18, STRESS PERIOD      2
 UBDSV1 SAVING     FLOW-JA-FACE ON UNIT   1027 AT TIME STEP     18, STRESS PERIOD      2
 UBDSV06 SAVING       DATA-SPDIS IN MODEL GWF_TRANSBASE    PACKAGE NPF             CONNECTED TO MODEL GWF_TRANSBASE    PACKAGE NPF              ON UNIT   1027 AT TIME STEP     18, STRESS PERIOD      2
 UBDSV06 SAVING              WEL IN MODEL GWF_TRANSBASE    PACKAGE GWF_TRANSBASE   CONNECTED TO MODEL GWF_TRANSBASE    PACKAGE WEL-1            ON UNIT   1027 AT TIME STEP     18, STRESS PERIOD      2
 UBDSV06 SAVING              CHD IN MODEL GWF_TRANSBASE    PACKAGE GWF_TRANSBASE   CONNECTED TO MODEL GWF_TRANSBASE    PACKAGE CHD-1            ON UNIT   1027 AT TIME STEP     18, STRESS PERIOD      2

 HEAD WILL BE SAVED ON UNIT 1028 AT END OF TIME STEP   18, STRESS PERIOD    2


  VOLUME BUDGET FOR ENTIRE MODEL AT END OF TIME STEP   18, STRESS PERIOD   2
  ---------------------------------------------------------------------------------------------------

     CUMULATIVE VOLUME      L**3       RATES FOR THIS TIME STEP      L**3/T          PACKAGE NAME    
     ------------------                 ------------------------                     ----------------

           IN:                                      IN:
           ---                                      ---
              STO-SS =    18522704.8859                STO-SS =      785204.1178     STORAGE                          
              STO-SY =     3520000.0007                STO-SY =           0.0000     STORAGE                          
                 WEL =           0.0000                   WEL =           0.0000     WEL-1                            
                 CHD =       2.8446E-08                   CHD =           0.0000     CHD-1                            

            TOTAL IN =    22042704.8866              TOTAL IN =      785204.1178

          OUT:                                     OUT:
          ----                                     ----
              STO-SS =    23009260.7831                STO-SS =    18370735.5194     STORAGE                          
              STO-SY =     4620000.0007                STO-SY =     3960000.0000     STORAGE                          
                 WEL =    42556468.8298                   WEL =    18245663.3401     WEL-1                            
                 CHD =     4475597.6614                   CHD =     1770169.9308     CHD-1                            

           TOTAL OUT =    74661327.2750             TOTAL OUT =    42346568.7902

            IN - OUT =   -52618622.3883              IN - OUT =   -41561364.6725

 PERCENT DISCREPANCY =        -108.82     PERCENT DISCREPANCY =        -192.72




         TIME SUMMARY AT END OF TIME STEP   18 IN STRESS PERIOD    2
                    SECONDS     MINUTES      HOURS       DAYS        YEARS
                    -----------------------------------------------------------
   TIME STEP LENGTH  7200.0      120.00      2.0000     8.33333E-02 2.28154E-04
 STRESS PERIOD TIME 1.29600E+05  2160.0      36.000      1.5000     4.10678E-03
         TOTAL TIME 2.16000E+05  3600.0      60.000      2.5000     6.84463E-03


         ****FAILED TO MEET SOLVER CONVERGENCE CRITERIA IN TIME STEP 18 OF STRESS PERIOD 2****

end timestep


start timestep kper="2" kstp="19" mode="normal"

 UBDSV1 SAVING           STO-SS ON UNIT   1027 AT TIME STEP     19, STRESS PERIOD      2
 UBDSV1 SAVING           STO-SY ON UNIT   1027 AT TIME STEP     19, STRESS PERIOD      2
 UBDSV1 SAVING     FLOW-JA-FACE ON UNIT   1027 AT TIME STEP     19, STRESS PERIOD      2
 UBDSV06 SAVING       DATA-SPDIS IN MODEL GWF_TRANSBASE    PACKAGE NPF             CONNECTED TO MODEL GWF_TRANSBASE    PACKAGE NPF              ON UNIT   1027 AT TIME STEP     19, STRESS PERIOD      2
 UBDSV06 SAVING              WEL IN MODEL GWF_TRANSBASE    PACKAGE GWF_TRANSBASE   CONNECTED TO MODEL GWF_TRANSBASE    PACKAGE WEL-1            ON UNIT   1027 AT TIME STEP     19, STRESS PERIOD      2
 UBDSV06 SAVING              CHD IN MODEL GWF_TRANSBASE    PACKAGE GWF_TRANSBASE   CONNECTED TO MODEL GWF_TRANSBASE    PACKAGE CHD-1            ON UNIT   1027 AT TIME STEP     19, STRESS PERIOD      2

 HEAD WILL BE SAVED ON UNIT 1028 AT END OF TIME STEP   19, STRESS PERIOD    2


  VOLUME BUDGET FOR ENTIRE MODEL AT END OF TIME STEP   19, STRESS PERIOD   2
  ---------------------------------------------------------------------------------------------------

     CUMULATIVE VOLUME      L**3       RATES FOR THIS TIME STEP      L**3/T          PACKAGE NAME    
     ------------------                 ------------------------                     ----------------

           IN:                                      IN:
           ---                                      ---
              STO-SS =    19584672.5856                STO-SS =    12743612.3960     STORAGE                          
              STO-SY =     3680000.0007                STO-SY =     1920000.0000     STORAGE                          
                 WEL =           0.0000                   WEL =           0.0000     WEL-1                            
                 CHD =       2.8446E-08                   CHD =           0.0000     CHD-1                            

            TOTAL IN =    23264672.5863              TOTAL IN =    14663612.3960

          OUT:                                     OUT:
          ----                                     ----
              STO-SS =    23009260.7831                STO-SS =           0.0000     STORAGE                          
              STO-SY =     4620000.0007                STO-SY =           0.0000     STORAGE                          
                 WEL =    44076940.7748                   WEL =    18245663.3401     WEL-1                            
                 CHD =     4617389.9786                   CHD =     1701507.8056     CHD-1                            

           TOTAL OUT =    76323591.5371             TOTAL OUT =    19947171.1457

            IN - OUT =   -53058918.9508              IN - OUT =    -5283558.7497

 PERCENT DISCREPANCY =        -106.56     PERCENT DISCREPANCY =         -30.53




         TIME SUMMARY AT END OF TIME STEP   19 IN STRESS PERIOD    2
                    SECONDS     MINUTES      HOURS       DAYS        YEARS
                    -----------------------------------------------------------
   TIME STEP LENGTH  7200.0      120.00      2.0000     8.33333E-02 2.28154E-04
 STRESS PERIOD TIME 1.36800E+05  2280.0      38.000      1.5833     4.33493E-03
         TOTAL TIME 2.23200E+05  3720.0      62.000      2.5833     7.07278E-03


         ****FAILED TO MEET SOLVER CONVERGENCE CRITERIA IN TIME STEP 19 OF STRESS PERIOD 2****

end timestep


start timestep kper="2" kstp="20" mode="normal"

 UBDSV1 SAVING           STO-SS ON UNIT   1027 AT TIME STEP     20, STRESS PERIOD      2
 UBDSV1 SAVING           STO-SY ON UNIT   1027 AT TIME STEP     20, STRESS PERIOD      2
 UBDSV1 SAVING     FLOW-JA-FACE ON UNIT   1027 AT TIME STEP     20, STRESS PERIOD      2
 UBDSV06 SAVING       DATA-SPDIS IN MODEL GWF_TRANSBASE    PACKAGE NPF             CONNECTED TO MODEL GWF_TRANSBASE    PACKAGE NPF              ON UNIT   1027 AT TIME STEP     20, STRESS PERIOD      2
 UBDSV06 SAVING              WEL IN MODEL GWF_TRANSBASE    PACKAGE GWF_TRANSBASE   CONNECTED TO MODEL GWF_TRANSBASE    PACKAGE WEL-1            ON UNIT   1027 AT TIME STEP     20, STRESS PERIOD      2
 UBDSV06 SAVING              CHD IN MODEL GWF_TRANSBASE    PACKAGE GWF_TRANSBASE   CONNECTED TO MODEL GWF_TRANSBASE    PACKAGE CHD-1            ON UNIT   1027 AT TIME STEP     20, STRESS PERIOD      2

 HEAD WILL BE SAVED ON UNIT 1028 AT END OF TIME STEP   20, STRESS PERIOD    2


  VOLUME BUDGET FOR ENTIRE MODEL AT END OF TIME STEP   20, STRESS PERIOD   2
  ---------------------------------------------------------------------------------------------------

     CUMULATIVE VOLUME      L**3       RATES FOR THIS TIME STEP      L**3/T          PACKAGE NAME    
     ------------------                 ------------------------                     ----------------

           IN:                                      IN:
           ---                                      ---
              STO-SS =    20063446.9873                STO-SS =     5745292.8207     STORAGE                          
              STO-SY =     3680000.0007                STO-SY =           0.0000     STORAGE                          
                 WEL =           0.0000                   WEL =           0.0000     WEL-1                            
                 CHD =       2.8446E-08                   CHD =           0.0000     CHD-1                            

            TOTAL IN =    23743446.9880              TOTAL IN =     5745292.8207

          OUT:                                     OUT:
          ----                                     ----
              STO-SS =    23014772.0033                STO-SS =       66134.6425     STORAGE                          
              STO-SY =     4620000.0007                STO-SY =           0.0000     STORAGE                          
                 WEL =    45597412.7198                   WEL =    18245663.3401     WEL-1                            
                 CHD =     4746411.6050                   CHD =     1548259.5172     CHD-1                            

           TOTAL OUT =    77978596.3287             TOTAL OUT =    19860057.4997

            IN - OUT =   -54235149.3407              IN - OUT =   -14114764.6790

 PERCENT DISCREPANCY =        -106.63     PERCENT DISCREPANCY =        -110.25




         TIME SUMMARY AT END OF TIME STEP   20 IN STRESS PERIOD    2
                    SECONDS     MINUTES      HOURS       DAYS        YEARS
                    -----------------------------------------------------------
   TIME STEP LENGTH  7200.0      120.00      2.0000     8.33333E-02 2.28154E-04
 STRESS PERIOD TIME 1.44000E+05  2400.0      40.000      1.6667     4.56308E-03
         TOTAL TIME 2.30400E+05  3840.0      64.000      2.6667     7.30094E-03


         ****FAILED TO MEET SOLVER CONVERGENCE CRITERIA IN TIME STEP 20 OF STRESS PERIOD 2****

end timestep


start timestep kper="2" kstp="21" mode="normal"

 UBDSV1 SAVING           STO-SS ON UNIT   1027 AT TIME STEP     21, STRESS PERIOD      2
 UBDSV1 SAVING           STO-SY ON UNIT   1027 AT TIME STEP     21, STRESS PERIOD      2
 UBDSV1 SAVING     FLOW-JA-FACE ON UNIT   1027 AT TIME STEP     21, STRESS PERIOD      2
 UBDSV06 SAVING       DATA-SPDIS IN MODEL GWF_TRANSBASE    PACKAGE NPF             CONNECTED TO MODEL GWF_TRANSBASE    PACKAGE NPF              ON UNIT   1027 AT TIME STEP     21, STRESS PERIOD      2
 UBDSV06 SAVING              WEL IN MODEL GWF_TRANSBASE    PACKAGE GWF_TRANSBASE   CONNECTED TO MODEL GWF_TRANSBASE    PACKAGE WEL-1            ON UNIT   1027 AT TIME STEP     21, STRESS PERIOD      2
 UBDSV06 SAVING              CHD IN MODEL GWF_TRANSBASE    PACKAGE GWF_TRANSBASE   CONNECTED TO MODEL GWF_TRANSBASE    PACKAGE CHD-1            ON UNIT   1027 AT TIME STEP     21, STRESS PERIOD      2

 HEAD WILL BE SAVED ON UNIT 1028 AT END OF TIME STEP   21, STRESS PERIOD    2


  VOLUME BUDGET FOR ENTIRE MODEL AT END OF TIME STEP   21, STRESS PERIOD   2
  ---------------------------------------------------------------------------------------------------

     CUMULATIVE VOLUME      L**3       RATES FOR THIS TIME STEP      L**3/T          PACKAGE NAME    
     ------------------                 ------------------------                     ----------------

           IN:                                      IN:
           ---                                      ---
              STO-SS =    20103356.1348                STO-SS =      478909.7698     STORAGE                          
              STO-SY =     3680000.0007                STO-SY =           0.0000     STORAGE                          
                 WEL =           0.0000                   WEL =           0.0000     WEL-1                            
                 CHD =       2.8446E-08                   CHD =           0.0000     CHD-1                            

            TOTAL IN =    23783356.1355              TOTAL IN =      478909.7698

          OUT:                                     OUT:
          ----                                     ----
              STO-SS =    23730603.3167                STO-SS =     8589975.7617     STORAGE                          
              STO-SY =     4670000.0007                STO-SY =      600000.0000     STORAGE                          
                 WEL =    47117884.6648                   WEL =    18245663.3401     WEL-1                            
                 CHD =     4876077.6692                   CHD =     1555992.7706     CHD-1                            

           TOTAL OUT =    80394565.6514             TOTAL OUT =    28991631.8724

            IN - OUT =   -56611209.5159              IN - OUT =   -28512722.1027

 PERCENT DISCREPANCY =        -108.68     PERCENT DISCREPANCY =        -193.50




         TIME SUMMARY AT END OF TIME STEP   21 IN STRESS PERIOD    2
                    SECONDS     MINUTES      HOURS       DAYS        YEARS
                    -----------------------------------------------------------
   TIME STEP LENGTH  7200.0      120.00      2.0000     8.33333E-02 2.28154E-04
 STRESS PERIOD TIME 1.51200E+05  2520.0      42.000      1.7500     4.79124E-03
         TOTAL TIME 2.37600E+05  3960.0      66.000      2.7500     7.52909E-03


         ****FAILED TO MEET SOLVER CONVERGENCE CRITERIA IN TIME STEP 21 OF STRESS PERIOD 2****

end timestep


start timestep kper="2" kstp="22" mode="normal"

 UBDSV1 SAVING           STO-SS ON UNIT   1027 AT TIME STEP     22, STRESS PERIOD      2
 UBDSV1 SAVING           STO-SY ON UNIT   1027 AT TIME STEP     22, STRESS PERIOD      2
 UBDSV1 SAVING     FLOW-JA-FACE ON UNIT   1027 AT TIME STEP     22, STRESS PERIOD      2
 UBDSV06 SAVING       DATA-SPDIS IN MODEL GWF_TRANSBASE    PACKAGE NPF             CONNECTED TO MODEL GWF_TRANSBASE    PACKAGE NPF              ON UNIT   1027 AT TIME STEP     22, STRESS PERIOD      2
 UBDSV06 SAVING              WEL IN MODEL GWF_TRANSBASE    PACKAGE GWF_TRANSBASE   CONNECTED TO MODEL GWF_TRANSBASE    PACKAGE WEL-1            ON UNIT   1027 AT TIME STEP     22, STRESS PERIOD      2
 UBDSV06 SAVING              CHD IN MODEL GWF_TRANSBASE    PACKAGE GWF_TRANSBASE   CONNECTED TO MODEL GWF_TRANSBASE    PACKAGE CHD-1            ON UNIT   1027 AT TIME STEP     22, STRESS PERIOD      2

 HEAD WILL BE SAVED ON UNIT 1028 AT END OF TIME STEP   22, STRESS PERIOD    2


  VOLUME BUDGET FOR ENTIRE MODEL AT END OF TIME STEP   22, STRESS PERIOD   2
  ---------------------------------------------------------------------------------------------------

     CUMULATIVE VOLUME      L**3       RATES FOR THIS TIME STEP      L**3/T          PACKAGE NAME    
     ------------------                 ------------------------                     ----------------

           IN:                                      IN:
           ---                                      ---
              STO-SS =    20829384.9995                STO-SS =     8712346.3759     STORAGE                          
              STO-SY =     3730000.0007                STO-SY =      600000.0000     STORAGE                          
                 WEL =           0.0000                   WEL =           0.0000     WEL-1                            
                 CHD =       2.8446E-08                   CHD =           0.0000     CHD-1                            

            TOTAL IN =    24559385.0002              TOTAL IN =     9312346.3759

          OUT:                                     OUT:
          ----                                     ----
              STO-SS =    23730603.3167                STO-SS =           0.0000     STORAGE                          
              STO-SY =     4670000.0007                STO-SY =           0.0000     STORAGE                          
                 WEL =    48638356.6098                   WEL =    18245663.3401     WEL-1                            
                 CHD =     4998079.3867                   CHD =     1464020.6101     CHD-1                            

           TOTAL OUT =    82037039.3140             TOTAL OUT =    19709683.9502

            IN - OUT =   -57477654.3138              IN - OUT =   -10397337.5743

 PERCENT DISCREPANCY =        -107.84     PERCENT DISCREPANCY =         -71.65




         TIME SUMMARY AT END OF TIME STEP   22 IN STRESS PERIOD    2
                    SECONDS     MINUTES      HOURS       DAYS        YEARS
                    -----------------------------------------------------------
   TIME STEP LENGTH  7200.0      120.00      2.0000     8.33333E-02 2.28154E-04
 STRESS PERIOD TIME 1.58400E+05  2640.0      44.000      1.8333     5.01939E-03
         TOTAL TIME 2.44800E+05  4080.0      68.000      2.8333     7.75724E-03


         ****FAILED TO MEET SOLVER CONVERGENCE CRITERIA IN TIME STEP 22 OF STRESS PERIOD 2****

end timestep


start timestep kper="2" kstp="23" mode="normal"

 UBDSV1 SAVING           STO-SS ON UNIT   1027 AT TIME STEP     23, STRESS PERIOD      2
 UBDSV1 SAVING           STO-SY ON UNIT   1027 AT TIME STEP     23, STRESS PERIOD      2
 UBDSV1 SAVING     FLOW-JA-FACE ON UNIT   1027 AT TIME STEP     23, STRESS PERIOD      2
 UBDSV06 SAVING       DATA-SPDIS IN MODEL GWF_TRANSBASE    PACKAGE NPF             CONNECTED TO MODEL GWF_TRANSBASE    PACKAGE NPF              ON UNIT   1027 AT TIME STEP     23, STRESS PERIOD      2
 UBDSV06 SAVING              WEL IN MODEL GWF_TRANSBASE    PACKAGE GWF_TRANSBASE   CONNECTED TO MODEL GWF_TRANSBASE    PACKAGE WEL-1            ON UNIT   1027 AT TIME STEP     23, STRESS PERIOD      2
 UBDSV06 SAVING              CHD IN MODEL GWF_TRANSBASE    PACKAGE GWF_TRANSBASE   CONNECTED TO MODEL GWF_TRANSBASE    PACKAGE CHD-1            ON UNIT   1027 AT TIME STEP     23, STRESS PERIOD      2

 HEAD WILL BE SAVED ON UNIT 1028 AT END OF TIME STEP   23, STRESS PERIOD    2


  VOLUME BUDGET FOR ENTIRE MODEL AT END OF TIME STEP   23, STRESS PERIOD   2
  ---------------------------------------------------------------------------------------------------

     CUMULATIVE VOLUME      L**3       RATES FOR THIS TIME STEP      L**3/T          PACKAGE NAME    
     ------------------                 ------------------------                     ----------------

           IN:                                      IN:
           ---                                      ---
              STO-SS =    20852728.1351                STO-SS =      280117.6272     STORAGE                          
              STO-SY =     3730000.0007                STO-SY =           0.0000     STORAGE                          
                 WEL =           0.0000                   WEL =           0.0000     WEL-1                            
                 CHD =       2.8446E-08                   CHD =           0.0000     CHD-1                            

            TOTAL IN =    24582728.1358              TOTAL IN =      280117.6272

          OUT:                                     OUT:
          ----                                     ----
              STO-SS =    24168647.9659                STO-SS =     5256535.7897     STORAGE                          
              STO-SY =     4690000.0007                STO-SY =      240000.0000     STORAGE                          
                 WEL =    50158828.5548                   WEL =    18245663.3401     WEL-1                            
                 CHD =     5119749.3264                   CHD =     1460039.2760     CHD-1                            

           TOTAL OUT =    84137225.8478             TOTAL OUT =    25202238.4058

            IN - OUT =   -59554497.7120              IN - OUT =   -24922120.7786

 PERCENT DISCREPANCY =        -109.56     PERCENT DISCREPANCY =        -195.60




         TIME SUMMARY AT END OF TIME STEP   23 IN STRESS PERIOD    2
                    SECONDS     MINUTES      HOURS       DAYS        YEARS
                    -----------------------------------------------------------
   TIME STEP LENGTH  7200.0      120.00      2.0000     8.33333E-02 2.28154E-04
 STRESS PERIOD TIME 1.65600E+05  2760.0      46.000      1.9167     5.24755E-03
         TOTAL TIME 2.52000E+05  4200.0      70.000      2.9167     7.98540E-03


         ****FAILED TO MEET SOLVER CONVERGENCE CRITERIA IN TIME STEP 23 OF STRESS PERIOD 2****

end timestep


start timestep kper="2" kstp="24" mode="normal"

 UBDSV1 SAVING           STO-SS ON UNIT   1027 AT TIME STEP     24, STRESS PERIOD      2
 UBDSV1 SAVING           STO-SY ON UNIT   1027 AT TIME STEP     24, STRESS PERIOD      2
 UBDSV1 SAVING     FLOW-JA-FACE ON UNIT   1027 AT TIME STEP     24, STRESS PERIOD      2
 UBDSV06 SAVING       DATA-SPDIS IN MODEL GWF_TRANSBASE    PACKAGE NPF             CONNECTED TO MODEL GWF_TRANSBASE    PACKAGE NPF              ON UNIT   1027 AT TIME STEP     24, STRESS PERIOD      2
 UBDSV06 SAVING              WEL IN MODEL GWF_TRANSBASE    PACKAGE GWF_TRANSBASE   CONNECTED TO MODEL GWF_TRANSBASE    PACKAGE WEL-1            ON UNIT   1027 AT TIME STEP     24, STRESS PERIOD      2
 UBDSV06 SAVING              CHD IN MODEL GWF_TRANSBASE    PACKAGE GWF_TRANSBASE   CONNECTED TO MODEL GWF_TRANSBASE    PACKAGE CHD-1            ON UNIT   1027 AT TIME STEP     24, STRESS PERIOD      2

 HEAD WILL BE SAVED ON UNIT 1028 AT END OF TIME STEP   24, STRESS PERIOD    2


  VOLUME BUDGET FOR ENTIRE MODEL AT END OF TIME STEP   24, STRESS PERIOD   2
  ---------------------------------------------------------------------------------------------------

     CUMULATIVE VOLUME      L**3       RATES FOR THIS TIME STEP      L**3/T          PACKAGE NAME    
     ------------------                 ------------------------                     ----------------

           IN:                                      IN:
           ---                                      ---
              STO-SS =    21655318.7023                STO-SS =     9631086.8073     STORAGE                          
              STO-SY =     3870000.0007                STO-SY =     1680000.0000     STORAGE                          
                 WEL =           0.0000                   WEL =           0.0000     WEL-1                            
                 CHD =       2.8446E-08                   CHD =           0.0000     CHD-1                            

            TOTAL IN =    25525318.7030              TOTAL IN =    11311086.8073

          OUT:                                     OUT:
          ----                                     ----
              STO-SS =    24168647.9659                STO-SS =           0.0000     STORAGE                          
              STO-SY =     4690000.0007                STO-SY =           0.0000     STORAGE                          
                 WEL =    51679300.4998                   WEL =    18245663.3401     WEL-1                            
                 CHD =     5231234.4947                   CHD =     1337822.0199     CHD-1                            

           TOTAL OUT =    85769182.9611             TOTAL OUT =    19583485.3599

            IN - OUT =   -60243864.2581              IN - OUT =    -8272398.5526

 PERCENT DISCREPANCY =        -108.26     PERCENT DISCREPANCY =         -53.55




         TIME SUMMARY AT END OF TIME STEP   24 IN STRESS PERIOD    2
                    SECONDS     MINUTES      HOURS       DAYS        YEARS
                    -----------------------------------------------------------
   TIME STEP LENGTH  7200.0      120.00      2.0000     8.33333E-02 2.28154E-04
 STRESS PERIOD TIME 1.72800E+05  2880.0      48.000      2.0000     5.47570E-03
         TOTAL TIME 2.59200E+05  4320.0      72.000      3.0000     8.21355E-03


         ****FAILED TO MEET SOLVER CONVERGENCE CRITERIA IN TIME STEP 24 OF STRESS PERIOD 2****

end timestep


start timestep kper="2" kstp="25" mode="normal"

 UBDSV1 SAVING           STO-SS ON UNIT   1027 AT TIME STEP     25, STRESS PERIOD      2
 UBDSV1 SAVING           STO-SY ON UNIT   1027 AT TIME STEP     25, STRESS PERIOD      2
 UBDSV1 SAVING     FLOW-JA-FACE ON UNIT   1027 AT TIME STEP     25, STRESS PERIOD      2
 UBDSV06 SAVING       DATA-SPDIS IN MODEL GWF_TRANSBASE    PACKAGE NPF             CONNECTED TO MODEL GWF_TRANSBASE    PACKAGE NPF              ON UNIT   1027 AT TIME STEP     25, STRESS PERIOD      2
 UBDSV06 SAVING              WEL IN MODEL GWF_TRANSBASE    PACKAGE GWF_TRANSBASE   CONNECTED TO MODEL GWF_TRANSBASE    PACKAGE WEL-1            ON UNIT   1027 AT TIME STEP     25, STRESS PERIOD      2
[...]
 UBDSV06 SAVING              CHD IN MODEL GWF_TRANSBASE    PACKAGE GWF_TRANSBASE   CONNECTED TO MODEL GWF_TRANSBASE    PACKAGE CHD-1            ON UNIT   1027 AT TIME STEP    103, STRESS PERIOD      4

 HEAD WILL BE SAVED ON UNIT 1028 AT END OF TIME STEP  103, STRESS PERIOD    4

end timestep


start timestep kper="4" kstp="104" mode="normal"

 UBDSV1 SAVING           STO-SS ON UNIT   1027 AT TIME STEP    104, STRESS PERIOD      4
 UBDSV1 SAVING           STO-SY ON UNIT   1027 AT TIME STEP    104, STRESS PERIOD      4
 UBDSV1 SAVING     FLOW-JA-FACE ON UNIT   1027 AT TIME STEP    104, STRESS PERIOD      4
 UBDSV06 SAVING       DATA-SPDIS IN MODEL GWF_TRANSBASE    PACKAGE NPF             CONNECTED TO MODEL GWF_TRANSBASE    PACKAGE NPF              ON UNIT   1027 AT TIME STEP    104, STRESS PERIOD      4
 UBDSV06 SAVING              WEL IN MODEL GWF_TRANSBASE    PACKAGE GWF_TRANSBASE   CONNECTED TO MODEL GWF_TRANSBASE    PACKAGE WEL-1            ON UNIT   1027 AT TIME STEP    104, STRESS PERIOD      4
 UBDSV06 SAVING              CHD IN MODEL GWF_TRANSBASE    PACKAGE GWF_TRANSBASE   CONNECTED TO MODEL GWF_TRANSBASE    PACKAGE CHD-1            ON UNIT   1027 AT TIME STEP    104, STRESS PERIOD      4

 HEAD WILL BE SAVED ON UNIT 1028 AT END OF TIME STEP  104, STRESS PERIOD    4

end timestep


start timestep kper="4" kstp="105" mode="normal"

 UBDSV1 SAVING           STO-SS ON UNIT   1027 AT TIME STEP    105, STRESS PERIOD      4
 UBDSV1 SAVING           STO-SY ON UNIT   1027 AT TIME STEP    105, STRESS PERIOD      4
 UBDSV1 SAVING     FLOW-JA-FACE ON UNIT   1027 AT TIME STEP    105, STRESS PERIOD      4
 UBDSV06 SAVING       DATA-SPDIS IN MODEL GWF_TRANSBASE    PACKAGE NPF             CONNECTED TO MODEL GWF_TRANSBASE    PACKAGE NPF              ON UNIT   1027 AT TIME STEP    105, STRESS PERIOD      4
 UBDSV06 SAVING              WEL IN MODEL GWF_TRANSBASE    PACKAGE GWF_TRANSBASE   CONNECTED TO MODEL GWF_TRANSBASE    PACKAGE WEL-1            ON UNIT   1027 AT TIME STEP    105, STRESS PERIOD      4
 UBDSV06 SAVING              CHD IN MODEL GWF_TRANSBASE    PACKAGE GWF_TRANSBASE   CONNECTED TO MODEL GWF_TRANSBASE    PACKAGE CHD-1            ON UNIT   1027 AT TIME STEP    105, STRESS PERIOD      4

 HEAD WILL BE SAVED ON UNIT 1028 AT END OF TIME STEP  105, STRESS PERIOD    4

end timestep


start timestep kper="4" kstp="106" mode="normal"

 UBDSV1 SAVING           STO-SS ON UNIT   1027 AT TIME STEP    106, STRESS PERIOD      4
 UBDSV1 SAVING           STO-SY ON UNIT   1027 AT TIME STEP    106, STRESS PERIOD      4
 UBDSV1 SAVING     FLOW-JA-FACE ON UNIT   1027 AT TIME STEP    106, STRESS PERIOD      4
 UBDSV06 SAVING       DATA-SPDIS IN MODEL GWF_TRANSBASE    PACKAGE NPF             CONNECTED TO MODEL GWF_TRANSBASE    PACKAGE NPF              ON UNIT   1027 AT TIME STEP    106, STRESS PERIOD      4
 UBDSV06 SAVING              WEL IN MODEL GWF_TRANSBASE    PACKAGE GWF_TRANSBASE   CONNECTED TO MODEL GWF_TRANSBASE    PACKAGE WEL-1            ON UNIT   1027 AT TIME STEP    106, STRESS PERIOD      4
 UBDSV06 SAVING              CHD IN MODEL GWF_TRANSBASE    PACKAGE GWF_TRANSBASE   CONNECTED TO MODEL GWF_TRANSBASE    PACKAGE CHD-1            ON UNIT   1027 AT TIME STEP    106, STRESS PERIOD      4

 HEAD WILL BE SAVED ON UNIT 1028 AT END OF TIME STEP  106, STRESS PERIOD    4

end timestep


start timestep kper="4" kstp="107" mode="normal"

 UBDSV1 SAVING           STO-SS ON UNIT   1027 AT TIME STEP    107, STRESS PERIOD      4
 UBDSV1 SAVING           STO-SY ON UNIT   1027 AT TIME STEP    107, STRESS PERIOD      4
 UBDSV1 SAVING     FLOW-JA-FACE ON UNIT   1027 AT TIME STEP    107, STRESS PERIOD      4
 UBDSV06 SAVING       DATA-SPDIS IN MODEL GWF_TRANSBASE    PACKAGE NPF             CONNECTED TO MODEL GWF_TRANSBASE    PACKAGE NPF              ON UNIT   1027 AT TIME STEP    107, STRESS PERIOD      4
 UBDSV06 SAVING              WEL IN MODEL GWF_TRANSBASE    PACKAGE GWF_TRANSBASE   CONNECTED TO MODEL GWF_TRANSBASE    PACKAGE WEL-1            ON UNIT   1027 AT TIME STEP    107, STRESS PERIOD      4
 UBDSV06 SAVING              CHD IN MODEL GWF_TRANSBASE    PACKAGE GWF_TRANSBASE   CONNECTED TO MODEL GWF_TRANSBASE    PACKAGE CHD-1            ON UNIT   1027 AT TIME STEP    107, STRESS PERIOD      4

 HEAD WILL BE SAVED ON UNIT 1028 AT END OF TIME STEP  107, STRESS PERIOD    4

end timestep


start timestep kper="4" kstp="108" mode="normal"

 UBDSV1 SAVING           STO-SS ON UNIT   1027 AT TIME STEP    108, STRESS PERIOD      4
 UBDSV1 SAVING           STO-SY ON UNIT   1027 AT TIME STEP    108, STRESS PERIOD      4
 UBDSV1 SAVING     FLOW-JA-FACE ON UNIT   1027 AT TIME STEP    108, STRESS PERIOD      4
 UBDSV06 SAVING       DATA-SPDIS IN MODEL GWF_TRANSBASE    PACKAGE NPF             CONNECTED TO MODEL GWF_TRANSBASE    PACKAGE NPF              ON UNIT   1027 AT TIME STEP    108, STRESS PERIOD      4
 UBDSV06 SAVING              WEL IN MODEL GWF_TRANSBASE    PACKAGE GWF_TRANSBASE   CONNECTED TO MODEL GWF_TRANSBASE    PACKAGE WEL-1            ON UNIT   1027 AT TIME STEP    108, STRESS PERIOD      4
 UBDSV06 SAVING              CHD IN MODEL GWF_TRANSBASE    PACKAGE GWF_TRANSBASE   CONNECTED TO MODEL GWF_TRANSBASE    PACKAGE CHD-1            ON UNIT   1027 AT TIME STEP    108, STRESS PERIOD      4

 HEAD WILL BE SAVED ON UNIT 1028 AT END OF TIME STEP  108, STRESS PERIOD    4

end timestep


start timestep kper="4" kstp="109" mode="normal"

 UBDSV1 SAVING           STO-SS ON UNIT   1027 AT TIME STEP    109, STRESS PERIOD      4
 UBDSV1 SAVING           STO-SY ON UNIT   1027 AT TIME STEP    109, STRESS PERIOD      4
 UBDSV1 SAVING     FLOW-JA-FACE ON UNIT   1027 AT TIME STEP    109, STRESS PERIOD      4
 UBDSV06 SAVING       DATA-SPDIS IN MODEL GWF_TRANSBASE    PACKAGE NPF             CONNECTED TO MODEL GWF_TRANSBASE    PACKAGE NPF              ON UNIT   1027 AT TIME STEP    109, STRESS PERIOD      4
 UBDSV06 SAVING              WEL IN MODEL GWF_TRANSBASE    PACKAGE GWF_TRANSBASE   CONNECTED TO MODEL GWF_TRANSBASE    PACKAGE WEL-1            ON UNIT   1027 AT TIME STEP    109, STRESS PERIOD      4
 UBDSV06 SAVING              CHD IN MODEL GWF_TRANSBASE    PACKAGE GWF_TRANSBASE   CONNECTED TO MODEL GWF_TRANSBASE    PACKAGE CHD-1            ON UNIT   1027 AT TIME STEP    109, STRESS PERIOD      4

 HEAD WILL BE SAVED ON UNIT 1028 AT END OF TIME STEP  109, STRESS PERIOD    4

end timestep


start timestep kper="4" kstp="110" mode="normal"

 UBDSV1 SAVING           STO-SS ON UNIT   1027 AT TIME STEP    110, STRESS PERIOD      4
 UBDSV1 SAVING           STO-SY ON UNIT   1027 AT TIME STEP    110, STRESS PERIOD      4
 UBDSV1 SAVING     FLOW-JA-FACE ON UNIT   1027 AT TIME STEP    110, STRESS PERIOD      4
 UBDSV06 SAVING       DATA-SPDIS IN MODEL GWF_TRANSBASE    PACKAGE NPF             CONNECTED TO MODEL GWF_TRANSBASE    PACKAGE NPF              ON UNIT   1027 AT TIME STEP    110, STRESS PERIOD      4
 UBDSV06 SAVING              WEL IN MODEL GWF_TRANSBASE    PACKAGE GWF_TRANSBASE   CONNECTED TO MODEL GWF_TRANSBASE    PACKAGE WEL-1            ON UNIT   1027 AT TIME STEP    110, STRESS PERIOD      4
 UBDSV06 SAVING              CHD IN MODEL GWF_TRANSBASE    PACKAGE GWF_TRANSBASE   CONNECTED TO MODEL GWF_TRANSBASE    PACKAGE CHD-1            ON UNIT   1027 AT TIME STEP    110, STRESS PERIOD      4

 HEAD WILL BE SAVED ON UNIT 1028 AT END OF TIME STEP  110, STRESS PERIOD    4

end timestep


start timestep kper="4" kstp="111" mode="normal"

 UBDSV1 SAVING           STO-SS ON UNIT   1027 AT TIME STEP    111, STRESS PERIOD      4
 UBDSV1 SAVING           STO-SY ON UNIT   1027 AT TIME STEP    111, STRESS PERIOD      4
 UBDSV1 SAVING     FLOW-JA-FACE ON UNIT   1027 AT TIME STEP    111, STRESS PERIOD      4
 UBDSV06 SAVING       DATA-SPDIS IN MODEL GWF_TRANSBASE    PACKAGE NPF             CONNECTED TO MODEL GWF_TRANSBASE    PACKAGE NPF              ON UNIT   1027 AT TIME STEP    111, STRESS PERIOD      4
 UBDSV06 SAVING              WEL IN MODEL GWF_TRANSBASE    PACKAGE GWF_TRANSBASE   CONNECTED TO MODEL GWF_TRANSBASE    PACKAGE WEL-1            ON UNIT   1027 AT TIME STEP    111, STRESS PERIOD      4
 UBDSV06 SAVING              CHD IN MODEL GWF_TRANSBASE    PACKAGE GWF_TRANSBASE   CONNECTED TO MODEL GWF_TRANSBASE    PACKAGE CHD-1            ON UNIT   1027 AT TIME STEP    111, STRESS PERIOD      4

 HEAD WILL BE SAVED ON UNIT 1028 AT END OF TIME STEP  111, STRESS PERIOD    4

end timestep


start timestep kper="4" kstp="112" mode="normal"

 UBDSV1 SAVING           STO-SS ON UNIT   1027 AT TIME STEP    112, STRESS PERIOD      4
 UBDSV1 SAVING           STO-SY ON UNIT   1027 AT TIME STEP    112, STRESS PERIOD      4
 UBDSV1 SAVING     FLOW-JA-FACE ON UNIT   1027 AT TIME STEP    112, STRESS PERIOD      4
 UBDSV06 SAVING       DATA-SPDIS IN MODEL GWF_TRANSBASE    PACKAGE NPF             CONNECTED TO MODEL GWF_TRANSBASE    PACKAGE NPF              ON UNIT   1027 AT TIME STEP    112, STRESS PERIOD      4
 UBDSV06 SAVING              WEL IN MODEL GWF_TRANSBASE    PACKAGE GWF_TRANSBASE   CONNECTED TO MODEL GWF_TRANSBASE    PACKAGE WEL-1            ON UNIT   1027 AT TIME STEP    112, STRESS PERIOD      4
 UBDSV06 SAVING              CHD IN MODEL GWF_TRANSBASE    PACKAGE GWF_TRANSBASE   CONNECTED TO MODEL GWF_TRANSBASE    PACKAGE CHD-1            ON UNIT   1027 AT TIME STEP    112, STRESS PERIOD      4

 HEAD WILL BE SAVED ON UNIT 1028 AT END OF TIME STEP  112, STRESS PERIOD    4

end timestep


start timestep kper="4" kstp="113" mode="normal"

 UBDSV1 SAVING           STO-SS ON UNIT   1027 AT TIME STEP    113, STRESS PERIOD      4
 UBDSV1 SAVING           STO-SY ON UNIT   1027 AT TIME STEP    113, STRESS PERIOD      4
 UBDSV1 SAVING     FLOW-JA-FACE ON UNIT   1027 AT TIME STEP    113, STRESS PERIOD      4
 UBDSV06 SAVING       DATA-SPDIS IN MODEL GWF_TRANSBASE    PACKAGE NPF             CONNECTED TO MODEL GWF_TRANSBASE    PACKAGE NPF              ON UNIT   1027 AT TIME STEP    113, STRESS PERIOD      4
 UBDSV06 SAVING              WEL IN MODEL GWF_TRANSBASE    PACKAGE GWF_TRANSBASE   CONNECTED TO MODEL GWF_TRANSBASE    PACKAGE WEL-1            ON UNIT   1027 AT TIME STEP    113, STRESS PERIOD      4
 UBDSV06 SAVING              CHD IN MODEL GWF_TRANSBASE    PACKAGE GWF_TRANSBASE   CONNECTED TO MODEL GWF_TRANSBASE    PACKAGE CHD-1            ON UNIT   1027 AT TIME STEP    113, STRESS PERIOD      4

 HEAD WILL BE SAVED ON UNIT 1028 AT END OF TIME STEP  113, STRESS PERIOD    4

end timestep


start timestep kper="4" kstp="114" mode="normal"

 UBDSV1 SAVING           STO-SS ON UNIT   1027 AT TIME STEP    114, STRESS PERIOD      4
 UBDSV1 SAVING           STO-SY ON UNIT   1027 AT TIME STEP    114, STRESS PERIOD      4
 UBDSV1 SAVING     FLOW-JA-FACE ON UNIT   1027 AT TIME STEP    114, STRESS PERIOD      4
 UBDSV06 SAVING       DATA-SPDIS IN MODEL GWF_TRANSBASE    PACKAGE NPF             CONNECTED TO MODEL GWF_TRANSBASE    PACKAGE NPF              ON UNIT   1027 AT TIME STEP    114, STRESS PERIOD      4
 UBDSV06 SAVING              WEL IN MODEL GWF_TRANSBASE    PACKAGE GWF_TRANSBASE   CONNECTED TO MODEL GWF_TRANSBASE    PACKAGE WEL-1            ON UNIT   1027 AT TIME STEP    114, STRESS PERIOD      4
 UBDSV06 SAVING              CHD IN MODEL GWF_TRANSBASE    PACKAGE GWF_TRANSBASE   CONNECTED TO MODEL GWF_TRANSBASE    PACKAGE CHD-1            ON UNIT   1027 AT TIME STEP    114, STRESS PERIOD      4

 HEAD WILL BE SAVED ON UNIT 1028 AT END OF TIME STEP  114, STRESS PERIOD    4

end timestep


start timestep kper="4" kstp="115" mode="normal"

 UBDSV1 SAVING           STO-SS ON UNIT   1027 AT TIME STEP    115, STRESS PERIOD      4
 UBDSV1 SAVING           STO-SY ON UNIT   1027 AT TIME STEP    115, STRESS PERIOD      4
 UBDSV1 SAVING     FLOW-JA-FACE ON UNIT   1027 AT TIME STEP    115, STRESS PERIOD      4
 UBDSV06 SAVING       DATA-SPDIS IN MODEL GWF_TRANSBASE    PACKAGE NPF             CONNECTED TO MODEL GWF_TRANSBASE    PACKAGE NPF              ON UNIT   1027 AT TIME STEP    115, STRESS PERIOD      4
 UBDSV06 SAVING              WEL IN MODEL GWF_TRANSBASE    PACKAGE GWF_TRANSBASE   CONNECTED TO MODEL GWF_TRANSBASE    PACKAGE WEL-1            ON UNIT   1027 AT TIME STEP    115, STRESS PERIOD      4
 UBDSV06 SAVING              CHD IN MODEL GWF_TRANSBASE    PACKAGE GWF_TRANSBASE   CONNECTED TO MODEL GWF_TRANSBASE    PACKAGE CHD-1            ON UNIT   1027 AT TIME STEP    115, STRESS PERIOD      4

 HEAD WILL BE SAVED ON UNIT 1028 AT END OF TIME STEP  115, STRESS PERIOD    4

end timestep


start timestep kper="4" kstp="116" mode="normal"

 UBDSV1 SAVING           STO-SS ON UNIT   1027 AT TIME STEP    116, STRESS PERIOD      4
 UBDSV1 SAVING           STO-SY ON UNIT   1027 AT TIME STEP    116, STRESS PERIOD      4
 UBDSV1 SAVING     FLOW-JA-FACE ON UNIT   1027 AT TIME STEP    116, STRESS PERIOD      4
 UBDSV06 SAVING       DATA-SPDIS IN MODEL GWF_TRANSBASE    PACKAGE NPF             CONNECTED TO MODEL GWF_TRANSBASE    PACKAGE NPF              ON UNIT   1027 AT TIME STEP    116, STRESS PERIOD      4
 UBDSV06 SAVING              WEL IN MODEL GWF_TRANSBASE    PACKAGE GWF_TRANSBASE   CONNECTED TO MODEL GWF_TRANSBASE    PACKAGE WEL-1            ON UNIT   1027 AT TIME STEP    116, STRESS PERIOD      4
 UBDSV06 SAVING              CHD IN MODEL GWF_TRANSBASE    PACKAGE GWF_TRANSBASE   CONNECTED TO MODEL GWF_TRANSBASE    PACKAGE CHD-1            ON UNIT   1027 AT TIME STEP    116, STRESS PERIOD      4

 HEAD WILL BE SAVED ON UNIT 1028 AT END OF TIME STEP  116, STRESS PERIOD    4

end timestep


start timestep kper="4" kstp="117" mode="normal"

 UBDSV1 SAVING           STO-SS ON UNIT   1027 AT TIME STEP    117, STRESS PERIOD      4
 UBDSV1 SAVING           STO-SY ON UNIT   1027 AT TIME STEP    117, STRESS PERIOD      4
 UBDSV1 SAVING     FLOW-JA-FACE ON UNIT   1027 AT TIME STEP    117, STRESS PERIOD      4
 UBDSV06 SAVING       DATA-SPDIS IN MODEL GWF_TRANSBASE    PACKAGE NPF             CONNECTED TO MODEL GWF_TRANSBASE    PACKAGE NPF              ON UNIT   1027 AT TIME STEP    117, STRESS PERIOD      4
 UBDSV06 SAVING              WEL IN MODEL GWF_TRANSBASE    PACKAGE GWF_TRANSBASE   CONNECTED TO MODEL GWF_TRANSBASE    PACKAGE WEL-1            ON UNIT   1027 AT TIME STEP    117, STRESS PERIOD      4
 UBDSV06 SAVING              CHD IN MODEL GWF_TRANSBASE    PACKAGE GWF_TRANSBASE   CONNECTED TO MODEL GWF_TRANSBASE    PACKAGE CHD-1            ON UNIT   1027 AT TIME STEP    117, STRESS PERIOD      4

 HEAD WILL BE SAVED ON UNIT 1028 AT END OF TIME STEP  117, STRESS PERIOD    4

end timestep


start timestep kper="4" kstp="118" mode="normal"

 UBDSV1 SAVING           STO-SS ON UNIT   1027 AT TIME STEP    118, STRESS PERIOD      4
 UBDSV1 SAVING           STO-SY ON UNIT   1027 AT TIME STEP    118, STRESS PERIOD      4
 UBDSV1 SAVING     FLOW-JA-FACE ON UNIT   1027 AT TIME STEP    118, STRESS PERIOD      4
 UBDSV06 SAVING       DATA-SPDIS IN MODEL GWF_TRANSBASE    PACKAGE NPF             CONNECTED TO MODEL GWF_TRANSBASE    PACKAGE NPF              ON UNIT   1027 AT TIME STEP    118, STRESS PERIOD      4
 UBDSV06 SAVING              WEL IN MODEL GWF_TRANSBASE    PACKAGE GWF_TRANSBASE   CONNECTED TO MODEL GWF_TRANSBASE    PACKAGE WEL-1            ON UNIT   1027 AT TIME STEP    118, STRESS PERIOD      4
 UBDSV06 SAVING              CHD IN MODEL GWF_TRANSBASE    PACKAGE GWF_TRANSBASE   CONNECTED TO MODEL GWF_TRANSBASE    PACKAGE CHD-1            ON UNIT   1027 AT TIME STEP    118, STRESS PERIOD      4

 HEAD WILL BE SAVED ON UNIT 1028 AT END OF TIME STEP  118, STRESS PERIOD    4

end timestep


start timestep kper="4" kstp="119" mode="normal"

 UBDSV1 SAVING           STO-SS ON UNIT   1027 AT TIME STEP    119, STRESS PERIOD      4
 UBDSV1 SAVING           STO-SY ON UNIT   1027 AT TIME STEP    119, STRESS PERIOD      4
 UBDSV1 SAVING     FLOW-JA-FACE ON UNIT   1027 AT TIME STEP    119, STRESS PERIOD      4
 UBDSV06 SAVING       DATA-SPDIS IN MODEL GWF_TRANSBASE    PACKAGE NPF             CONNECTED TO MODEL GWF_TRANSBASE    PACKAGE NPF              ON UNIT   1027 AT TIME STEP    119, STRESS PERIOD      4
 UBDSV06 SAVING              WEL IN MODEL GWF_TRANSBASE    PACKAGE GWF_TRANSBASE   CONNECTED TO MODEL GWF_TRANSBASE    PACKAGE WEL-1            ON UNIT   1027 AT TIME STEP    119, STRESS PERIOD      4
 UBDSV06 SAVING              CHD IN MODEL GWF_TRANSBASE    PACKAGE GWF_TRANSBASE   CONNECTED TO MODEL GWF_TRANSBASE    PACKAGE CHD-1            ON UNIT   1027 AT TIME STEP    119, STRESS PERIOD      4

 HEAD WILL BE SAVED ON UNIT 1028 AT END OF TIME STEP  119, STRESS PERIOD    4

end timestep


start timestep kper="4" kstp="120" mode="normal"

 UBDSV1 SAVING           STO-SS ON UNIT   1027 AT TIME STEP    120, STRESS PERIOD      4
 UBDSV1 SAVING           STO-SY ON UNIT   1027 AT TIME STEP    120, STRESS PERIOD      4
 UBDSV1 SAVING     FLOW-JA-FACE ON UNIT   1027 AT TIME STEP    120, STRESS PERIOD      4
 UBDSV06 SAVING       DATA-SPDIS IN MODEL GWF_TRANSBASE    PACKAGE NPF             CONNECTED TO MODEL GWF_TRANSBASE    PACKAGE NPF              ON UNIT   1027 AT TIME STEP    120, STRESS PERIOD      4
 UBDSV06 SAVING              WEL IN MODEL GWF_TRANSBASE    PACKAGE GWF_TRANSBASE   CONNECTED TO MODEL GWF_TRANSBASE    PACKAGE WEL-1            ON UNIT   1027 AT TIME STEP    120, STRESS PERIOD      4
 UBDSV06 SAVING              CHD IN MODEL GWF_TRANSBASE    PACKAGE GWF_TRANSBASE   CONNECTED TO MODEL GWF_TRANSBASE    PACKAGE CHD-1            ON UNIT   1027 AT TIME STEP    120, STRESS PERIOD      4

 HEAD WILL BE SAVED ON UNIT 1028 AT END OF TIME STEP  120, STRESS PERIOD    4


  VOLUME BUDGET FOR ENTIRE MODEL AT END OF TIME STEP  120, STRESS PERIOD   4
  ---------------------------------------------------------------------------------------------------

     CUMULATIVE VOLUME      L**3       RATES FOR THIS TIME STEP      L**3/T          PACKAGE NAME    
     ------------------                 ------------------------                     ----------------

           IN:                                      IN:
           ---                                      ---
              STO-SS =    57978479.2657                STO-SS =         279.7671     STORAGE                          
              STO-SY =     6630000.0007                STO-SY =           0.0000     STORAGE                          
                 WEL =           0.0000                   WEL =           0.0000     WEL-1                            
                 CHD =       2.8446E-08                   CHD =           0.0000     CHD-1                            

            TOTAL IN =    64608479.2664              TOTAL IN =         279.7671

          OUT:                                     OUT:
          ----                                     ----
              STO-SS =    57979119.4359                STO-SS =           0.0000     STORAGE                          
              STO-SY =     8110000.0007                STO-SY =           0.0000     STORAGE                          
                 WEL =   197644623.7205                   WEL =           0.1500     WEL-1                            
                 CHD =    18956705.1082                   CHD =         279.6316     CHD-1                            

           TOTAL OUT =   282690448.2653             TOTAL OUT =         279.7816

            IN - OUT =  -218081968.9989              IN - OUT =      -1.4506E-02

 PERCENT DISCREPANCY =        -125.59     PERCENT DISCREPANCY =          -0.01




         TIME SUMMARY AT END OF TIME STEP  120 IN STRESS PERIOD    4
                    SECONDS     MINUTES      HOURS       DAYS        YEARS
                    -----------------------------------------------------------
   TIME STEP LENGTH  7200.0      120.00      2.0000     8.33333E-02 2.28154E-04
 STRESS PERIOD TIME 8.64000E+05  14400.      240.00      10.000     2.73785E-02
         TOTAL TIME 2.67840E+06  44640.      744.00      31.000     8.48734E-02


end timestep

