                                   MODFLOW 6
                U.S. GEOLOGICAL SURVEY MODULAR HYDROLOGIC MODEL
                          GROUNDWATER FLOW MODEL (GWF)
                            VERSION 6.6.2 05/12/2025

   MODFLOW 6 compiled May 12 2025 12:42:18 with Intel(R) Fortran Intel(R) 64
   Compiler Classic for applications running on Intel(R) 64, Version 2021.7.0
                             Build 20220726_000000

This software has been approved for release by the U.S. Geological 
Survey (USGS). Although the software has been subjected to rigorous 
review, the USGS reserves the right to update the software as needed 
pursuant to further analysis and review. No warranty, expressed or 
implied, is made by the USGS or the U.S. Government as to the 
functionality of the software and related material nor shall the 
fact of release constitute any such warranty. Furthermore, the 
software is released on condition that neither the USGS nor the U.S. 
Government shall be held liable for any damages resulting from its 
authorized or unauthorized use. Also refer to the USGS Water 
Resources Software User Rights Notice for complete use, copyright, 
and distribution information.


As a work of the United States Government, this USGS product is 
in the public domain within the United States. You can copy, 
modify, distribute, and perform the work, even for commercial 
purposes, all without asking permission. Additionally, USGS 
waives copyright and related rights in the work worldwide 
through CC0 1.0 Universal Public Domain Dedication 
(https://creativecommons.org/publicdomain/zero/1.0/).

The following GNU Lesser General Public License (LGPL) libraries
are used in this USGS product:

    SPARSKIT version 2.0
      ilut, luson, and qsplit 
      (https://www-users.cse.umn.edu/~saad/software/SPARSKIT/)

    RCM - Reverse Cuthill McKee Ordering
      (https://people.math.sc.edu/Burkardt/f_src/rcm/rcm.html)

    BLAS - Basic Linear Algebra Subprograms Level 1
      (https://people.math.sc.edu/Burkardt/f_src/blas1_d/blas1_d.html)

    SPARSEKIT - Sparse Matrix Utility Package
      amux, dperm, dvperm, rperm, and cperm
      (https://people.sc.fsu.edu/~jburkardt/f77_src/sparsekit/sparsekit.html)

The following BSD-3 License libraries are used in this USGS product:

    Modern Fortran DAG Library
      Copyright (c) 2018, Jacob Williams
      All rights reserved.
      (https://github.com/jacobwilliams/daglib)

MODFLOW 6 compiler options: /Isrc\libmf6core.a.p /Isrc /I..\src
/Isrc\libmf6_external.a.p /MT /nologo /warn:general /warn:truncated_source
/stand:f18 /O2 /fpe:0 /heap-arrays:0 /traceback /fpp /Qdiag-disable:7416
/Qdiag-disable:7025 /Qdiag-disable:5268 /Qdiag-disable:10448
/Fdsrc\libmf6core.a.p\Utilities_compilerversion.F90.pdb
/module:src\libmf6core.a.p
/Fosrc/libmf6core.a.p/Utilities_compilerversion.F90.obj /c

System command used to initiate simulation:
"C:\Users\lucialabarca\pymf6-validation\.pixi\envs\default\python.EXE" system_well_control.py

MODFLOW was compiled using uniform precision.

Real Variables
  KIND: 8
  TINY (smallest non-zero value):    2.225074-308
  HUGE (largest value):    1.797693+308
  PRECISION: 15
  SIZE IN BITS: 64

Integer Variables
  KIND: 4
  HUGE (largest value): 2147483647
  SIZE IN BITS: 32

Long Integer Variables
  KIND: 8
  HUGE (largest value): 9223372036854775807
  SIZE IN BITS: 64

Logical Variables
  KIND: 4
  SIZE IN BITS: 32
 
 NAMEFILE OPTIONS:
    FLOWS WILL BE SAVED TO BUDGET FILE SPECIFIED IN OUTPUT CONTROL
 END NAMEFILE OPTIONS:

 DIS -- STRUCTURED GRID DISCRETIZATION PACKAGE, VERSION 2 : 3/27/2014 - INPUT READ FROM MEMPATH: __INPUT__/GWF_TRANSBASE/DIS                       


 NPF -- NODE PROPERTY FLOW PACKAGE, VERSION 1, 3/30/2015 INPUT READ FROM MEMPATH: __INPUT__/GWF_TRANSBASE/NPF                       


 IC -- Initial Conditions Package, Version 8, 3/28/2015 input read from mempath: __INPUT__/GWF_TRANSBASE/IC                        


 Setting Discretization Options
    Model length unit [0=UND, 1=FEET, 2=METERS, 3=CENTIMETERS] set as 2
 End Setting Discretization Options

 Setting Discretization Dimensions
    NLAY = 3
    NROW = 15
    NCOL = 10
 End Setting Discretization Dimensions

 Setting Discretization Griddata
    DELR set from input file
    DELC set from input file
    TOP set from input file
    BOTM set from input file
 End Setting Discretization Griddata

 Setting NPF Options
    Cell-by-cell flow information will be saved to binary file whenever ICBCFL is not zero.
    Specific discharge will be calculated at cell centers and written to DATA-SPDIS in budget file when requested.
 End Setting NPF Options

 Setting NPF Griddata
    ICELLTYPE set from input file
    K set from input file
    K33 set from input file
    K22 not provided.  Setting K22 = K.
 End Setting NPF Griddata


 WEL   -- WEL PACKAGE, VERSION 8, 2/22/2014 INPUT READ FROM MEMPATH: __INPUT__/GWF_TRANSBASE/WEL-1                     

 PROCESSING WEL BASE OPTIONS
 END OF WEL BASE OPTIONS

 PROCESSING WEL OPTIONS
 END OF WEL OPTIONS

 PROCESSING WEL BASE DIMENSIONS
    MAXBOUND =       3
 END OF WEL BASE DIMENSIONS

 CHD   -- CHD PACKAGE, VERSION 8, 2/22/2014 INPUT READ FROM MEMPATH: __INPUT__/GWF_TRANSBASE/CHD-1                     

 PROCESSING CHD BASE OPTIONS
 END OF CHD BASE OPTIONS

 PROCESSING CHD BASE DIMENSIONS
    MAXBOUND =       2
 END OF CHD BASE DIMENSIONS
    STRT set from input file

 STO -- STORAGE PACKAGE, VERSION 1, 5/19/2014 INPUT READ FROM MEMPATH: __INPUT__/GWF_TRANSBASE/STO                       


 PROCESSING STORAGE OPTIONS
    CELL-BY-CELL FLOW INFORMATION WILL BE SAVED TO BINARY FILE WHENEVER ICBCFL IS NOT ZERO.
 END OF STORAGE OPTIONS
    BINARY GRID INFORMATION WILL BE WRITTEN TO:
      UNIT NUMBER: 1026
      FILE NAME: gwf_transbase.dis.grb

 OPENED gwf_transbase.dis.grb
 FILE TYPE:DATA(BINARY)   UNIT 1026   STATUS:REPLACE             
 FORMAT:UNFORMATTED            ACCESS:STREAM              
 ACTION:READWRITE           

      THE LAST TIME STEP WILL BE PRINTED
      THE LAST TIME STEP WILL BE PRINTED
 # File generated by Flopy version 3.9.3 on 06/29/2025 at 15:13:48.

 PROCESSING OC OPTIONS

    BUDGET INFORMATION WILL BE WRITTEN TO:
      UNIT NUMBER: 1027
      FILE NAME: gwf_transbase.bud

 OPENED gwf_transbase.bud
 FILE TYPE:DATA(BINARY)   UNIT 1027   STATUS:REPLACE             
 FORMAT:UNFORMATTED            ACCESS:STREAM              
 ACTION:READWRITE           

    HEAD INFORMATION WILL BE WRITTEN TO:
      UNIT NUMBER: 1028
      FILE NAME: gwf_transbase.hds

 OPENED gwf_transbase.hds
 FILE TYPE:DATA(BINARY)   UNIT 1028   STATUS:REPLACE             
 FORMAT:UNFORMATTED            ACCESS:STREAM              
 ACTION:READWRITE           

 END OF OC OPTIONS

start timestep kper="1" kstp="1" mode="normal"


 BEGIN READING OUTPUT CONTROL FOR STRESS PERIOD 1
      ALL TIME STEPS WILL BE SAVED
      ALL TIME STEPS WILL BE SAVED

 END READING OUTPUT CONTROL FOR STRESS PERIOD 1


 PROCESSING STORAGE PERIOD DATA
 END PROCESSING STORAGE PERIOD DATA


 STRESS PERIOD 1 IS STEADY-STATE

 UBDSV1 SAVING           STO-SS ON UNIT   1027 AT TIME STEP      1, STRESS PERIOD      1
 UBDSV1 SAVING           STO-SY ON UNIT   1027 AT TIME STEP      1, STRESS PERIOD      1
 UBDSV1 SAVING     FLOW-JA-FACE ON UNIT   1027 AT TIME STEP      1, STRESS PERIOD      1
 UBDSV06 SAVING       DATA-SPDIS IN MODEL GWF_TRANSBASE    PACKAGE NPF             CONNECTED TO MODEL GWF_TRANSBASE    PACKAGE NPF              ON UNIT   1027 AT TIME STEP      1, STRESS PERIOD      1
 UBDSV06 SAVING              WEL IN MODEL GWF_TRANSBASE    PACKAGE GWF_TRANSBASE   CONNECTED TO MODEL GWF_TRANSBASE    PACKAGE WEL-1            ON UNIT   1027 AT TIME STEP      1, STRESS PERIOD      1
 UBDSV06 SAVING              CHD IN MODEL GWF_TRANSBASE    PACKAGE GWF_TRANSBASE   CONNECTED TO MODEL GWF_TRANSBASE    PACKAGE CHD-1            ON UNIT   1027 AT TIME STEP      1, STRESS PERIOD      1

 HEAD WILL BE SAVED ON UNIT 1028 AT END OF TIME STEP    1, STRESS PERIOD    1


  VOLUME BUDGET FOR ENTIRE MODEL AT END OF TIME STEP    1, STRESS PERIOD   1
  ---------------------------------------------------------------------------------------------------

     CUMULATIVE VOLUME      L**3       RATES FOR THIS TIME STEP      L**3/T          PACKAGE NAME    
     ------------------                 ------------------------                     ----------------

           IN:                                      IN:
           ---                                      ---
              STO-SS =           0.0000                STO-SS =           0.0000     STORAGE                          
              STO-SY =           0.0000                STO-SY =           0.0000     STORAGE                          
                 WEL =           0.0000                   WEL =           0.0000     WEL-1                            
                 CHD =           0.0000                   CHD =           0.0000     CHD-1                            

            TOTAL IN =           0.0000              TOTAL IN =           0.0000

          OUT:                                     OUT:
          ----                                     ----
              STO-SS =           0.0000                STO-SS =           0.0000     STORAGE                          
              STO-SY =           0.0000                STO-SY =           0.0000     STORAGE                          
                 WEL =           0.0000                   WEL =           0.0000     WEL-1                            
                 CHD =           0.0000                   CHD =           0.0000     CHD-1                            

           TOTAL OUT =           0.0000             TOTAL OUT =           0.0000

            IN - OUT =           0.0000              IN - OUT =           0.0000

 PERCENT DISCREPANCY =           0.00     PERCENT DISCREPANCY =           0.00




         TIME SUMMARY AT END OF TIME STEP    1 IN STRESS PERIOD    1
                    SECONDS     MINUTES      HOURS       DAYS        YEARS
                    -----------------------------------------------------------
   TIME STEP LENGTH  86400.      1440.0      24.000      1.0000     2.73785E-03
 STRESS PERIOD TIME  86400.      1440.0      24.000      1.0000     2.73785E-03
         TOTAL TIME  86400.      1440.0      24.000      1.0000     2.73785E-03


end timestep


start timestep kper="2" kstp="1" mode="normal"


 END OF FILE DETECTED IN OUTPUT CONTROL.
 CURRENT OUTPUT CONTROL SETTINGS WILL BE 
 REPEATED UNTIL THE END OF THE SIMULATION.

 OUTPUT CONTROL FOR STRESS PERIOD 2 IS REPEATED USING SETTINGS FROM A PREVIOUS STRESS PERIOD.


 PROCESSING STORAGE PERIOD DATA
 END PROCESSING STORAGE PERIOD DATA


 STRESS PERIOD 2 IS TRANSIENT

 UBDSV1 SAVING           STO-SS ON UNIT   1027 AT TIME STEP      1, STRESS PERIOD      2
 UBDSV1 SAVING           STO-SY ON UNIT   1027 AT TIME STEP      1, STRESS PERIOD      2
 UBDSV1 SAVING     FLOW-JA-FACE ON UNIT   1027 AT TIME STEP      1, STRESS PERIOD      2
 UBDSV06 SAVING       DATA-SPDIS IN MODEL GWF_TRANSBASE    PACKAGE NPF             CONNECTED TO MODEL GWF_TRANSBASE    PACKAGE NPF              ON UNIT   1027 AT TIME STEP      1, STRESS PERIOD      2
 UBDSV06 SAVING              WEL IN MODEL GWF_TRANSBASE    PACKAGE GWF_TRANSBASE   CONNECTED TO MODEL GWF_TRANSBASE    PACKAGE WEL-1            ON UNIT   1027 AT TIME STEP      1, STRESS PERIOD      2
 UBDSV06 SAVING              CHD IN MODEL GWF_TRANSBASE    PACKAGE GWF_TRANSBASE   CONNECTED TO MODEL GWF_TRANSBASE    PACKAGE CHD-1            ON UNIT   1027 AT TIME STEP      1, STRESS PERIOD      2

 HEAD WILL BE SAVED ON UNIT 1028 AT END OF TIME STEP    1, STRESS PERIOD    2

end timestep


start timestep kper="2" kstp="2" mode="normal"

 UBDSV1 SAVING           STO-SS ON UNIT   1027 AT TIME STEP      2, STRESS PERIOD      2
 UBDSV1 SAVING           STO-SY ON UNIT   1027 AT TIME STEP      2, STRESS PERIOD      2
 UBDSV1 SAVING     FLOW-JA-FACE ON UNIT   1027 AT TIME STEP      2, STRESS PERIOD      2
 UBDSV06 SAVING       DATA-SPDIS IN MODEL GWF_TRANSBASE    PACKAGE NPF             CONNECTED TO MODEL GWF_TRANSBASE    PACKAGE NPF              ON UNIT   1027 AT TIME STEP      2, STRESS PERIOD      2
 UBDSV06 SAVING              WEL IN MODEL GWF_TRANSBASE    PACKAGE GWF_TRANSBASE   CONNECTED TO MODEL GWF_TRANSBASE    PACKAGE WEL-1            ON UNIT   1027 AT TIME STEP      2, STRESS PERIOD      2
 UBDSV06 SAVING              CHD IN MODEL GWF_TRANSBASE    PACKAGE GWF_TRANSBASE   CONNECTED TO MODEL GWF_TRANSBASE    PACKAGE CHD-1            ON UNIT   1027 AT TIME STEP      2, STRESS PERIOD      2

 HEAD WILL BE SAVED ON UNIT 1028 AT END OF TIME STEP    2, STRESS PERIOD    2

end timestep


start timestep kper="2" kstp="3" mode="normal"

 UBDSV1 SAVING           STO-SS ON UNIT   1027 AT TIME STEP      3, STRESS PERIOD      2
 UBDSV1 SAVING           STO-SY ON UNIT   1027 AT TIME STEP      3, STRESS PERIOD      2
 UBDSV1 SAVING     FLOW-JA-FACE ON UNIT   1027 AT TIME STEP      3, STRESS PERIOD      2
 UBDSV06 SAVING       DATA-SPDIS IN MODEL GWF_TRANSBASE    PACKAGE NPF             CONNECTED TO MODEL GWF_TRANSBASE    PACKAGE NPF              ON UNIT   1027 AT TIME STEP      3, STRESS PERIOD      2
 UBDSV06 SAVING              WEL IN MODEL GWF_TRANSBASE    PACKAGE GWF_TRANSBASE   CONNECTED TO MODEL GWF_TRANSBASE    PACKAGE WEL-1            ON UNIT   1027 AT TIME STEP      3, STRESS PERIOD      2
 UBDSV06 SAVING              CHD IN MODEL GWF_TRANSBASE    PACKAGE GWF_TRANSBASE   CONNECTED TO MODEL GWF_TRANSBASE    PACKAGE CHD-1            ON UNIT   1027 AT TIME STEP      3, STRESS PERIOD      2

 HEAD WILL BE SAVED ON UNIT 1028 AT END OF TIME STEP    3, STRESS PERIOD    2

end timestep


start timestep kper="2" kstp="4" mode="normal"

 UBDSV1 SAVING           STO-SS ON UNIT   1027 AT TIME STEP      4, STRESS PERIOD      2
 UBDSV1 SAVING           STO-SY ON UNIT   1027 AT TIME STEP      4, STRESS PERIOD      2
 UBDSV1 SAVING     FLOW-JA-FACE ON UNIT   1027 AT TIME STEP      4, STRESS PERIOD      2
 UBDSV06 SAVING       DATA-SPDIS IN MODEL GWF_TRANSBASE    PACKAGE NPF             CONNECTED TO MODEL GWF_TRANSBASE    PACKAGE NPF              ON UNIT   1027 AT TIME STEP      4, STRESS PERIOD      2
 UBDSV06 SAVING              WEL IN MODEL GWF_TRANSBASE    PACKAGE GWF_TRANSBASE   CONNECTED TO MODEL GWF_TRANSBASE    PACKAGE WEL-1            ON UNIT   1027 AT TIME STEP      4, STRESS PERIOD      2
 UBDSV06 SAVING              CHD IN MODEL GWF_TRANSBASE    PACKAGE GWF_TRANSBASE   CONNECTED TO MODEL GWF_TRANSBASE    PACKAGE CHD-1            ON UNIT   1027 AT TIME STEP      4, STRESS PERIOD      2

 HEAD WILL BE SAVED ON UNIT 1028 AT END OF TIME STEP    4, STRESS PERIOD    2

end timestep


start timestep kper="2" kstp="5" mode="normal"

 UBDSV1 SAVING           STO-SS ON UNIT   1027 AT TIME STEP      5, STRESS PERIOD      2
 UBDSV1 SAVING           STO-SY ON UNIT   1027 AT TIME STEP      5, STRESS PERIOD      2
 UBDSV1 SAVING     FLOW-JA-FACE ON UNIT   1027 AT TIME STEP      5, STRESS PERIOD      2
 UBDSV06 SAVING       DATA-SPDIS IN MODEL GWF_TRANSBASE    PACKAGE NPF             CONNECTED TO MODEL GWF_TRANSBASE    PACKAGE NPF              ON UNIT   1027 AT TIME STEP      5, STRESS PERIOD      2
 UBDSV06 SAVING              WEL IN MODEL GWF_TRANSBASE    PACKAGE GWF_TRANSBASE   CONNECTED TO MODEL GWF_TRANSBASE    PACKAGE WEL-1            ON UNIT   1027 AT TIME STEP      5, STRESS PERIOD      2
 UBDSV06 SAVING              CHD IN MODEL GWF_TRANSBASE    PACKAGE GWF_TRANSBASE   CONNECTED TO MODEL GWF_TRANSBASE    PACKAGE CHD-1            ON UNIT   1027 AT TIME STEP      5, STRESS PERIOD      2

 HEAD WILL BE SAVED ON UNIT 1028 AT END OF TIME STEP    5, STRESS PERIOD    2

end timestep


start timestep kper="2" kstp="6" mode="normal"

 UBDSV1 SAVING           STO-SS ON UNIT   1027 AT TIME STEP      6, STRESS PERIOD      2
 UBDSV1 SAVING           STO-SY ON UNIT   1027 AT TIME STEP      6, STRESS PERIOD      2
 UBDSV1 SAVING     FLOW-JA-FACE ON UNIT   1027 AT TIME STEP      6, STRESS PERIOD      2
 UBDSV06 SAVING       DATA-SPDIS IN MODEL GWF_TRANSBASE    PACKAGE NPF             CONNECTED TO MODEL GWF_TRANSBASE    PACKAGE NPF              ON UNIT   1027 AT TIME STEP      6, STRESS PERIOD      2
 UBDSV06 SAVING              WEL IN MODEL GWF_TRANSBASE    PACKAGE GWF_TRANSBASE   CONNECTED TO MODEL GWF_TRANSBASE    PACKAGE WEL-1            ON UNIT   1027 AT TIME STEP      6, STRESS PERIOD      2
 UBDSV06 SAVING              CHD IN MODEL GWF_TRANSBASE    PACKAGE GWF_TRANSBASE   CONNECTED TO MODEL GWF_TRANSBASE    PACKAGE CHD-1            ON UNIT   1027 AT TIME STEP      6, STRESS PERIOD      2

 HEAD WILL BE SAVED ON UNIT 1028 AT END OF TIME STEP    6, STRESS PERIOD    2

end timestep


start timestep kper="2" kstp="7" mode="normal"

 UBDSV1 SAVING           STO-SS ON UNIT   1027 AT TIME STEP      7, STRESS PERIOD      2
 UBDSV1 SAVING           STO-SY ON UNIT   1027 AT TIME STEP      7, STRESS PERIOD      2
 UBDSV1 SAVING     FLOW-JA-FACE ON UNIT   1027 AT TIME STEP      7, STRESS PERIOD      2
 UBDSV06 SAVING       DATA-SPDIS IN MODEL GWF_TRANSBASE    PACKAGE NPF             CONNECTED TO MODEL GWF_TRANSBASE    PACKAGE NPF              ON UNIT   1027 AT TIME STEP      7, STRESS PERIOD      2
 UBDSV06 SAVING              WEL IN MODEL GWF_TRANSBASE    PACKAGE GWF_TRANSBASE   CONNECTED TO MODEL GWF_TRANSBASE    PACKAGE WEL-1            ON UNIT   1027 AT TIME STEP      7, STRESS PERIOD      2
 UBDSV06 SAVING              CHD IN MODEL GWF_TRANSBASE    PACKAGE GWF_TRANSBASE   CONNECTED TO MODEL GWF_TRANSBASE    PACKAGE CHD-1            ON UNIT   1027 AT TIME STEP      7, STRESS PERIOD      2

 HEAD WILL BE SAVED ON UNIT 1028 AT END OF TIME STEP    7, STRESS PERIOD    2


  VOLUME BUDGET FOR ENTIRE MODEL AT END OF TIME STEP    7, STRESS PERIOD   2
  ---------------------------------------------------------------------------------------------------

     CUMULATIVE VOLUME      L**3       RATES FOR THIS TIME STEP      L**3/T          PACKAGE NAME    
     ------------------                 ------------------------                     ----------------

           IN:                                      IN:
           ---                                      ---
              STO-SS =          67.8751                STO-SS =         814.4718     STORAGE                          
              STO-SY =     1110000.0257                STO-SY =    13319755.1079     STORAGE                          
                 WEL =           0.0000                   WEL =           0.0000     WEL-1                            
                 CHD =       3.0525E-08                   CHD =           0.0000     CHD-1                            

            TOTAL IN =     1110067.9007              TOTAL IN =    13320569.5797

          OUT:                                     OUT:
          ----                                     ----
              STO-SS =    17876718.6425                STO-SS =   214520623.7099     STORAGE                          
              STO-SY =     1250000.0257                STO-SY =    15000000.3082     STORAGE                          
                 WEL =    10904190.8055                   WEL =   130849938.2166     WEL-1                            
                 CHD =     1130076.9171                   CHD =    13560923.0057     CHD-1                            

           TOTAL OUT =    31160986.3908             TOTAL OUT =   373931485.2405

            IN - OUT =   -30050918.4900              IN - OUT =  -360610915.6608

 PERCENT DISCREPANCY =        -186.24     PERCENT DISCREPANCY =        -186.24




         TIME SUMMARY AT END OF TIME STEP    7 IN STRESS PERIOD    2
                    SECONDS     MINUTES      HOURS       DAYS        YEARS
                    -----------------------------------------------------------
   TIME STEP LENGTH  7200.0      120.00      2.0000     8.33333E-02 2.28154E-04
 STRESS PERIOD TIME  50400.      840.00      14.000     0.58333     1.59708E-03
         TOTAL TIME 1.36800E+05  2280.0      38.000      1.5833     4.33493E-03


         ****FAILED TO MEET SOLVER CONVERGENCE CRITERIA IN TIME STEP 7 OF STRESS PERIOD 2****

end timestep


start timestep kper="2" kstp="8" mode="normal"

 UBDSV1 SAVING           STO-SS ON UNIT   1027 AT TIME STEP      8, STRESS PERIOD      2
 UBDSV1 SAVING           STO-SY ON UNIT   1027 AT TIME STEP      8, STRESS PERIOD      2
 UBDSV1 SAVING     FLOW-JA-FACE ON UNIT   1027 AT TIME STEP      8, STRESS PERIOD      2
 UBDSV06 SAVING       DATA-SPDIS IN MODEL GWF_TRANSBASE    PACKAGE NPF             CONNECTED TO MODEL GWF_TRANSBASE    PACKAGE NPF              ON UNIT   1027 AT TIME STEP      8, STRESS PERIOD      2
 UBDSV06 SAVING              WEL IN MODEL GWF_TRANSBASE    PACKAGE GWF_TRANSBASE   CONNECTED TO MODEL GWF_TRANSBASE    PACKAGE WEL-1            ON UNIT   1027 AT TIME STEP      8, STRESS PERIOD      2
 UBDSV06 SAVING              CHD IN MODEL GWF_TRANSBASE    PACKAGE GWF_TRANSBASE   CONNECTED TO MODEL GWF_TRANSBASE    PACKAGE CHD-1            ON UNIT   1027 AT TIME STEP      8, STRESS PERIOD      2

 HEAD WILL BE SAVED ON UNIT 1028 AT END OF TIME STEP    8, STRESS PERIOD    2


  VOLUME BUDGET FOR ENTIRE MODEL AT END OF TIME STEP    8, STRESS PERIOD   2
  ---------------------------------------------------------------------------------------------------

     CUMULATIVE VOLUME      L**3       RATES FOR THIS TIME STEP      L**3/T          PACKAGE NAME    
     ------------------                 ------------------------                     ----------------

           IN:                                      IN:
           ---                                      ---
              STO-SS =     8208826.7114                STO-SS =    98505106.0360     STORAGE                          
              STO-SY =     3210000.0257                STO-SY =    25200000.0000     STORAGE                          
                 WEL =           0.0000                   WEL =           0.0000     WEL-1                            
                 CHD =       3.0525E-08                   CHD =           0.0000     CHD-1                            

            TOTAL IN =    11418826.7371              TOTAL IN =   123705106.0360

          OUT:                                     OUT:
          ----                                     ----
              STO-SS =    17876718.6425                STO-SS =           0.0000     STORAGE                          
              STO-SY =     1250000.0257                STO-SY =           0.0000     STORAGE                          
                 WEL =    20551539.9060                   WEL =   115768189.2061     WEL-1                            
                 CHD =     1816440.0962                   CHD =     8236358.1482     CHD-1                            

           TOTAL OUT =    41494698.6703             TOTAL OUT =   124004547.3543

            IN - OUT =   -30075871.9332              IN - OUT =     -299441.3183

 PERCENT DISCREPANCY =        -113.68     PERCENT DISCREPANCY =          -0.24




         TIME SUMMARY AT END OF TIME STEP    8 IN STRESS PERIOD    2
                    SECONDS     MINUTES      HOURS       DAYS        YEARS
                    -----------------------------------------------------------
   TIME STEP LENGTH  7200.0      120.00      2.0000     8.33333E-02 2.28154E-04
 STRESS PERIOD TIME  57600.      960.00      16.000     0.66667     1.82523E-03
         TOTAL TIME 1.44000E+05  2400.0      40.000      1.6667     4.56308E-03


         ****FAILED TO MEET SOLVER CONVERGENCE CRITERIA IN TIME STEP 8 OF STRESS PERIOD 2****

end timestep


start timestep kper="2" kstp="9" mode="normal"

 UBDSV1 SAVING           STO-SS ON UNIT   1027 AT TIME STEP      9, STRESS PERIOD      2
 UBDSV1 SAVING           STO-SY ON UNIT   1027 AT TIME STEP      9, STRESS PERIOD      2
 UBDSV1 SAVING     FLOW-JA-FACE ON UNIT   1027 AT TIME STEP      9, STRESS PERIOD      2
 UBDSV06 SAVING       DATA-SPDIS IN MODEL GWF_TRANSBASE    PACKAGE NPF             CONNECTED TO MODEL GWF_TRANSBASE    PACKAGE NPF              ON UNIT   1027 AT TIME STEP      9, STRESS PERIOD      2
 UBDSV06 SAVING              WEL IN MODEL GWF_TRANSBASE    PACKAGE GWF_TRANSBASE   CONNECTED TO MODEL GWF_TRANSBASE    PACKAGE WEL-1            ON UNIT   1027 AT TIME STEP      9, STRESS PERIOD      2
 UBDSV06 SAVING              CHD IN MODEL GWF_TRANSBASE    PACKAGE GWF_TRANSBASE   CONNECTED TO MODEL GWF_TRANSBASE    PACKAGE CHD-1            ON UNIT   1027 AT TIME STEP      9, STRESS PERIOD      2

 HEAD WILL BE SAVED ON UNIT 1028 AT END OF TIME STEP    9, STRESS PERIOD    2


  VOLUME BUDGET FOR ENTIRE MODEL AT END OF TIME STEP    9, STRESS PERIOD   2
  ---------------------------------------------------------------------------------------------------

     CUMULATIVE VOLUME      L**3       RATES FOR THIS TIME STEP      L**3/T          PACKAGE NAME    
     ------------------                 ------------------------                     ----------------

           IN:                                      IN:
           ---                                      ---
              STO-SS =    10384355.5792                STO-SS =    26106346.4134     STORAGE                          
              STO-SY =     3290000.0257                STO-SY =      960000.0000     STORAGE                          
                 WEL =           0.0000                   WEL =           0.0000     WEL-1                            
                 CHD =       3.0525E-08                   CHD =           0.0000     CHD-1                            

            TOTAL IN =    13674355.6049              TOTAL IN =    27066346.4134

          OUT:                                     OUT:
          ----                                     ----
              STO-SS =    19208005.1436                STO-SS =    15975438.0136     STORAGE                          
              STO-SY =     1650000.0257                STO-SY =     4800000.0000     STORAGE                          
                 WEL =    24921772.1056                   WEL =    52442786.3952     WEL-1                            
                 CHD =     2428412.0451                   CHD =     7343663.3868     CHD-1                            

           TOTAL OUT =    48208189.3199             TOTAL OUT =    80561887.7956

            IN - OUT =   -34533833.7151              IN - OUT =   -53495541.3822

 PERCENT DISCREPANCY =        -111.61     PERCENT DISCREPANCY =         -99.41




         TIME SUMMARY AT END OF TIME STEP    9 IN STRESS PERIOD    2
                    SECONDS     MINUTES      HOURS       DAYS        YEARS
                    -----------------------------------------------------------
   TIME STEP LENGTH  7200.0      120.00      2.0000     8.33333E-02 2.28154E-04
 STRESS PERIOD TIME  64800.      1080.0      18.000     0.75000     2.05339E-03
         TOTAL TIME 1.51200E+05  2520.0      42.000      1.7500     4.79124E-03


         ****FAILED TO MEET SOLVER CONVERGENCE CRITERIA IN TIME STEP 9 OF STRESS PERIOD 2****

end timestep


start timestep kper="2" kstp="10" mode="normal"

 UBDSV1 SAVING           STO-SS ON UNIT   1027 AT TIME STEP     10, STRESS PERIOD      2
 UBDSV1 SAVING           STO-SY ON UNIT   1027 AT TIME STEP     10, STRESS PERIOD      2
 UBDSV1 SAVING     FLOW-JA-FACE ON UNIT   1027 AT TIME STEP     10, STRESS PERIOD      2
 UBDSV06 SAVING       DATA-SPDIS IN MODEL GWF_TRANSBASE    PACKAGE NPF             CONNECTED TO MODEL GWF_TRANSBASE    PACKAGE NPF              ON UNIT   1027 AT TIME STEP     10, STRESS PERIOD      2
 UBDSV06 SAVING              WEL IN MODEL GWF_TRANSBASE    PACKAGE GWF_TRANSBASE   CONNECTED TO MODEL GWF_TRANSBASE    PACKAGE WEL-1            ON UNIT   1027 AT TIME STEP     10, STRESS PERIOD      2
 UBDSV06 SAVING              CHD IN MODEL GWF_TRANSBASE    PACKAGE GWF_TRANSBASE   CONNECTED TO MODEL GWF_TRANSBASE    PACKAGE CHD-1            ON UNIT   1027 AT TIME STEP     10, STRESS PERIOD      2

 HEAD WILL BE SAVED ON UNIT 1028 AT END OF TIME STEP   10, STRESS PERIOD    2


  VOLUME BUDGET FOR ENTIRE MODEL AT END OF TIME STEP   10, STRESS PERIOD   2
  ---------------------------------------------------------------------------------------------------

     CUMULATIVE VOLUME      L**3       RATES FOR THIS TIME STEP      L**3/T          PACKAGE NAME    
     ------------------                 ------------------------                     ----------------

           IN:                                      IN:
           ---                                      ---
              STO-SS =    13053187.6698                STO-SS =    32025985.0875     STORAGE                          
              STO-SY =     3290000.0257                STO-SY =           0.0000     STORAGE                          
                 WEL =           0.0000                   WEL =           0.0000     WEL-1                            
                 CHD =       3.0525E-08                   CHD =           0.0000     CHD-1                            

            TOTAL IN =    16343187.6955              TOTAL IN =    32025985.0875

          OUT:                                     OUT:
          ----                                     ----
              STO-SS =    19210769.1748                STO-SS =       33168.3743     STORAGE                          
              STO-SY =     1650000.0257                STO-SY =           0.0000     STORAGE                          
                 WEL =    28278154.6917                   WEL =    40276591.0332     WEL-1                            
                 CHD =     2834319.6573                   CHD =     4870891.3472     CHD-1                            

           TOTAL OUT =    51973243.5495             TOTAL OUT =    45180650.7547

            IN - OUT =   -35630055.8540              IN - OUT =   -13154665.6671

 PERCENT DISCREPANCY =        -104.31     PERCENT DISCREPANCY =         -34.08




         TIME SUMMARY AT END OF TIME STEP   10 IN STRESS PERIOD    2
                    SECONDS     MINUTES      HOURS       DAYS        YEARS
                    -----------------------------------------------------------
   TIME STEP LENGTH  7200.0      120.00      2.0000     8.33333E-02 2.28154E-04
 STRESS PERIOD TIME  72000.      1200.0      20.000     0.83333     2.28154E-03
         TOTAL TIME 1.58400E+05  2640.0      44.000      1.8333     5.01939E-03


         ****FAILED TO MEET SOLVER CONVERGENCE CRITERIA IN TIME STEP 10 OF STRESS PERIOD 2****

end timestep


start timestep kper="2" kstp="11" mode="normal"

 UBDSV1 SAVING           STO-SS ON UNIT   1027 AT TIME STEP     11, STRESS PERIOD      2
 UBDSV1 SAVING           STO-SY ON UNIT   1027 AT TIME STEP     11, STRESS PERIOD      2
 UBDSV1 SAVING     FLOW-JA-FACE ON UNIT   1027 AT TIME STEP     11, STRESS PERIOD      2
 UBDSV06 SAVING       DATA-SPDIS IN MODEL GWF_TRANSBASE    PACKAGE NPF             CONNECTED TO MODEL GWF_TRANSBASE    PACKAGE NPF              ON UNIT   1027 AT TIME STEP     11, STRESS PERIOD      2
 UBDSV06 SAVING              WEL IN MODEL GWF_TRANSBASE    PACKAGE GWF_TRANSBASE   CONNECTED TO MODEL GWF_TRANSBASE    PACKAGE WEL-1            ON UNIT   1027 AT TIME STEP     11, STRESS PERIOD      2
 UBDSV06 SAVING              CHD IN MODEL GWF_TRANSBASE    PACKAGE GWF_TRANSBASE   CONNECTED TO MODEL GWF_TRANSBASE    PACKAGE CHD-1            ON UNIT   1027 AT TIME STEP     11, STRESS PERIOD      2

 HEAD WILL BE SAVED ON UNIT 1028 AT END OF TIME STEP   11, STRESS PERIOD    2


  VOLUME BUDGET FOR ENTIRE MODEL AT END OF TIME STEP   11, STRESS PERIOD   2
  ---------------------------------------------------------------------------------------------------

     CUMULATIVE VOLUME      L**3       RATES FOR THIS TIME STEP      L**3/T          PACKAGE NAME    
     ------------------                 ------------------------                     ----------------

           IN:                                      IN:
           ---                                      ---
              STO-SS =    14183665.3525                STO-SS =    13565732.1925     STORAGE                          
              STO-SY =     3290000.0257                STO-SY =           0.0000     STORAGE                          
                 WEL =           0.0000                   WEL =           0.0000     WEL-1                            
                 CHD =       3.0525E-08                   CHD =           0.0000     CHD-1                            

            TOTAL IN =    17473665.3782              TOTAL IN =    13565732.1925

          OUT:                                     OUT:
          ----                                     ----
              STO-SS =    19681342.1003                STO-SS =     5646875.1062     STORAGE                          
              STO-SY =     2010000.0257                STO-SY =     4320000.0000     STORAGE                          
                 WEL =    30855895.9507                   WEL =    30932895.1085     WEL-1                            
                 CHD =     3158185.3143                   CHD =     3886387.8832     CHD-1                            

           TOTAL OUT =    55705423.3910             TOTAL OUT =    44786158.0979

            IN - OUT =   -38231758.0128              IN - OUT =   -31220425.9055

 PERCENT DISCREPANCY =        -104.49     PERCENT DISCREPANCY =        -107.01




         TIME SUMMARY AT END OF TIME STEP   11 IN STRESS PERIOD    2
                    SECONDS     MINUTES      HOURS       DAYS        YEARS
                    -----------------------------------------------------------
   TIME STEP LENGTH  7200.0      120.00      2.0000     8.33333E-02 2.28154E-04
 STRESS PERIOD TIME  79200.      1320.0      22.000     0.91667     2.50970E-03
         TOTAL TIME 1.65600E+05  2760.0      46.000      1.9167     5.24755E-03


         ****FAILED TO MEET SOLVER CONVERGENCE CRITERIA IN TIME STEP 11 OF STRESS PERIOD 2****

end timestep


start timestep kper="2" kstp="12" mode="normal"

 UBDSV1 SAVING           STO-SS ON UNIT   1027 AT TIME STEP     12, STRESS PERIOD      2
 UBDSV1 SAVING           STO-SY ON UNIT   1027 AT TIME STEP     12, STRESS PERIOD      2
 UBDSV1 SAVING     FLOW-JA-FACE ON UNIT   1027 AT TIME STEP     12, STRESS PERIOD      2
 UBDSV06 SAVING       DATA-SPDIS IN MODEL GWF_TRANSBASE    PACKAGE NPF             CONNECTED TO MODEL GWF_TRANSBASE    PACKAGE NPF              ON UNIT   1027 AT TIME STEP     12, STRESS PERIOD      2
 UBDSV06 SAVING              WEL IN MODEL GWF_TRANSBASE    PACKAGE GWF_TRANSBASE   CONNECTED TO MODEL GWF_TRANSBASE    PACKAGE WEL-1            ON UNIT   1027 AT TIME STEP     12, STRESS PERIOD      2
 UBDSV06 SAVING              CHD IN MODEL GWF_TRANSBASE    PACKAGE GWF_TRANSBASE   CONNECTED TO MODEL GWF_TRANSBASE    PACKAGE CHD-1            ON UNIT   1027 AT TIME STEP     12, STRESS PERIOD      2

 HEAD WILL BE SAVED ON UNIT 1028 AT END OF TIME STEP   12, STRESS PERIOD    2


  VOLUME BUDGET FOR ENTIRE MODEL AT END OF TIME STEP   12, STRESS PERIOD   2
  ---------------------------------------------------------------------------------------------------

     CUMULATIVE VOLUME      L**3       RATES FOR THIS TIME STEP      L**3/T          PACKAGE NAME    
     ------------------                 ------------------------                     ----------------

           IN:                                      IN:
           ---                                      ---
              STO-SS =    15359354.9179                STO-SS =    14108274.7850     STORAGE                          
              STO-SY =     3390000.0257                STO-SY =     1200000.0000     STORAGE                          
                 WEL =           0.0000                   WEL =           0.0000     WEL-1                            
                 CHD =       3.0525E-08                   CHD =           0.0000     CHD-1                            

            TOTAL IN =    18749354.9436              TOTAL IN =    15308274.7850

          OUT:                                     OUT:
          ----                                     ----
              STO-SS =    19939900.1981                STO-SS =     3102697.1727     STORAGE                          
              STO-SY =     2130000.0257                STO-SY =     1440000.0000     STORAGE                          
                 WEL =    33433637.2098                   WEL =    30932895.1085     WEL-1                            
                 CHD =     3415819.1148                   CHD =     3091605.6062     CHD-1                            

           TOTAL OUT =    58919356.5483             TOTAL OUT =    38567197.8874

            IN - OUT =   -40170001.6047              IN - OUT =   -23258923.1025

 PERCENT DISCREPANCY =        -103.44     PERCENT DISCREPANCY =         -86.34




         TIME SUMMARY AT END OF TIME STEP   12 IN STRESS PERIOD    2
                    SECONDS     MINUTES      HOURS       DAYS        YEARS
                    -----------------------------------------------------------
   TIME STEP LENGTH  7200.0      120.00      2.0000     8.33333E-02 2.28154E-04
 STRESS PERIOD TIME  86400.      1440.0      24.000      1.0000     2.73785E-03
         TOTAL TIME 1.72800E+05  2880.0      48.000      2.0000     5.47570E-03


         ****FAILED TO MEET SOLVER CONVERGENCE CRITERIA IN TIME STEP 12 OF STRESS PERIOD 2****

end timestep


start timestep kper="2" kstp="13" mode="normal"

 UBDSV1 SAVING           STO-SS ON UNIT   1027 AT TIME STEP     13, STRESS PERIOD      2
 UBDSV1 SAVING           STO-SY ON UNIT   1027 AT TIME STEP     13, STRESS PERIOD      2
 UBDSV1 SAVING     FLOW-JA-FACE ON UNIT   1027 AT TIME STEP     13, STRESS PERIOD      2
 UBDSV06 SAVING       DATA-SPDIS IN MODEL GWF_TRANSBASE    PACKAGE NPF             CONNECTED TO MODEL GWF_TRANSBASE    PACKAGE NPF              ON UNIT   1027 AT TIME STEP     13, STRESS PERIOD      2
 UBDSV06 SAVING              WEL IN MODEL GWF_TRANSBASE    PACKAGE GWF_TRANSBASE   CONNECTED TO MODEL GWF_TRANSBASE    PACKAGE WEL-1            ON UNIT   1027 AT TIME STEP     13, STRESS PERIOD      2
 UBDSV06 SAVING              CHD IN MODEL GWF_TRANSBASE    PACKAGE GWF_TRANSBASE   CONNECTED TO MODEL GWF_TRANSBASE    PACKAGE CHD-1            ON UNIT   1027 AT TIME STEP     13, STRESS PERIOD      2

 HEAD WILL BE SAVED ON UNIT 1028 AT END OF TIME STEP   13, STRESS PERIOD    2


  VOLUME BUDGET FOR ENTIRE MODEL AT END OF TIME STEP   13, STRESS PERIOD   2
  ---------------------------------------------------------------------------------------------------

     CUMULATIVE VOLUME      L**3       RATES FOR THIS TIME STEP      L**3/T          PACKAGE NAME    
     ------------------                 ------------------------                     ----------------

           IN:                                      IN:
           ---                                      ---
              STO-SS =    15963336.7023                STO-SS =     7247781.4123     STORAGE                          
              STO-SY =     3390000.0257                STO-SY =           0.0000     STORAGE                          
                 WEL =           0.0000                   WEL =           0.0000     WEL-1                            
                 CHD =       3.0525E-08                   CHD =           0.0000     CHD-1                            

            TOTAL IN =    19353336.7280              TOTAL IN =     7247781.4123

          OUT:                                     OUT:
          ----                                     ----
              STO-SS =    20407595.7648                STO-SS =     5612346.8012     STORAGE                          
              STO-SY =     3190000.0257                STO-SY =    12720000.0000     STORAGE                          
                 WEL =    34954109.1589                   WEL =    18245663.3901     WEL-1                            
                 CHD =     3641896.5777                   CHD =     2712929.5552     CHD-1                            

           TOTAL OUT =    62193601.5271             TOTAL OUT =    39290939.7464

            IN - OUT =   -42840264.7992              IN - OUT =   -32043158.3341

 PERCENT DISCREPANCY =        -105.07     PERCENT DISCREPANCY =        -137.71




         TIME SUMMARY AT END OF TIME STEP   13 IN STRESS PERIOD    2
                    SECONDS     MINUTES      HOURS       DAYS        YEARS
                    -----------------------------------------------------------
   TIME STEP LENGTH  7200.0      120.00      2.0000     8.33333E-02 2.28154E-04
 STRESS PERIOD TIME  93600.      1560.0      26.000      1.0833     2.96601E-03
         TOTAL TIME 1.80000E+05  3000.0      50.000      2.0833     5.70386E-03


         ****FAILED TO MEET SOLVER CONVERGENCE CRITERIA IN TIME STEP 13 OF STRESS PERIOD 2****

end timestep


start timestep kper="2" kstp="14" mode="normal"

 UBDSV1 SAVING           STO-SS ON UNIT   1027 AT TIME STEP     14, STRESS PERIOD      2
 UBDSV1 SAVING           STO-SY ON UNIT   1027 AT TIME STEP     14, STRESS PERIOD      2
 UBDSV1 SAVING     FLOW-JA-FACE ON UNIT   1027 AT TIME STEP     14, STRESS PERIOD      2
 UBDSV06 SAVING       DATA-SPDIS IN MODEL GWF_TRANSBASE    PACKAGE NPF             CONNECTED TO MODEL GWF_TRANSBASE    PACKAGE NPF              ON UNIT   1027 AT TIME STEP     14, STRESS PERIOD      2
 UBDSV06 SAVING              WEL IN MODEL GWF_TRANSBASE    PACKAGE GWF_TRANSBASE   CONNECTED TO MODEL GWF_TRANSBASE    PACKAGE WEL-1            ON UNIT   1027 AT TIME STEP     14, STRESS PERIOD      2
 UBDSV06 SAVING              CHD IN MODEL GWF_TRANSBASE    PACKAGE GWF_TRANSBASE   CONNECTED TO MODEL GWF_TRANSBASE    PACKAGE CHD-1            ON UNIT   1027 AT TIME STEP     14, STRESS PERIOD      2

 HEAD WILL BE SAVED ON UNIT 1028 AT END OF TIME STEP   14, STRESS PERIOD    2


  VOLUME BUDGET FOR ENTIRE MODEL AT END OF TIME STEP   14, STRESS PERIOD   2
  ---------------------------------------------------------------------------------------------------

     CUMULATIVE VOLUME      L**3       RATES FOR THIS TIME STEP      L**3/T          PACKAGE NAME    
     ------------------                 ------------------------                     ----------------

           IN:                                      IN:
           ---                                      ---
              STO-SS =    16341322.1040                STO-SS =     4535824.8204     STORAGE                          
              STO-SY =     3390000.0257                STO-SY =           0.0000     STORAGE                          
                 WEL =           0.0000                   WEL =           0.0000     WEL-1                            
                 CHD =       3.0525E-08                   CHD =           0.0000     CHD-1                            

            TOTAL IN =    19731322.1297              TOTAL IN =     4535824.8204

          OUT:                                     OUT:
          ----                                     ----
              STO-SS =    21089693.3057                STO-SS =     8185170.4904     STORAGE                          
              STO-SY =     4100000.0257                STO-SY =    10920000.0000     STORAGE                          
                 WEL =    36474581.1081                   WEL =    18245663.3901     WEL-1                            
                 CHD =     3848647.3948                   CHD =     2481009.8051     CHD-1                            

           TOTAL OUT =    65512921.8343             TOTAL OUT =    39831843.6856

            IN - OUT =   -45781599.7046              IN - OUT =   -35296018.8652

 PERCENT DISCREPANCY =        -107.41     PERCENT DISCREPANCY =        -159.11




         TIME SUMMARY AT END OF TIME STEP   14 IN STRESS PERIOD    2
                    SECONDS     MINUTES      HOURS       DAYS        YEARS
                    -----------------------------------------------------------
   TIME STEP LENGTH  7200.0      120.00      2.0000     8.33333E-02 2.28154E-04
 STRESS PERIOD TIME 1.00800E+05  1680.0      28.000      1.1667     3.19416E-03
         TOTAL TIME 1.87200E+05  3120.0      52.000      2.1667     5.93201E-03


         ****FAILED TO MEET SOLVER CONVERGENCE CRITERIA IN TIME STEP 14 OF STRESS PERIOD 2****

end timestep


start timestep kper="2" kstp="15" mode="normal"

 UBDSV1 SAVING           STO-SS ON UNIT   1027 AT TIME STEP     15, STRESS PERIOD      2
 UBDSV1 SAVING           STO-SY ON UNIT   1027 AT TIME STEP     15, STRESS PERIOD      2
 UBDSV1 SAVING     FLOW-JA-FACE ON UNIT   1027 AT TIME STEP     15, STRESS PERIOD      2
 UBDSV06 SAVING       DATA-SPDIS IN MODEL GWF_TRANSBASE    PACKAGE NPF             CONNECTED TO MODEL GWF_TRANSBASE    PACKAGE NPF              ON UNIT   1027 AT TIME STEP     15, STRESS PERIOD      2
 UBDSV06 SAVING              WEL IN MODEL GWF_TRANSBASE    PACKAGE GWF_TRANSBASE   CONNECTED TO MODEL GWF_TRANSBASE    PACKAGE WEL-1            ON UNIT   1027 AT TIME STEP     15, STRESS PERIOD      2
 UBDSV06 SAVING              CHD IN MODEL GWF_TRANSBASE    PACKAGE GWF_TRANSBASE   CONNECTED TO MODEL GWF_TRANSBASE    PACKAGE CHD-1            ON UNIT   1027 AT TIME STEP     15, STRESS PERIOD      2

 HEAD WILL BE SAVED ON UNIT 1028 AT END OF TIME STEP   15, STRESS PERIOD    2


  VOLUME BUDGET FOR ENTIRE MODEL AT END OF TIME STEP   15, STRESS PERIOD   2
  ---------------------------------------------------------------------------------------------------

     CUMULATIVE VOLUME      L**3       RATES FOR THIS TIME STEP      L**3/T          PACKAGE NAME    
     ------------------                 ------------------------                     ----------------

           IN:                                      IN:
           ---                                      ---
              STO-SS =    17326743.0751                STO-SS =    11825051.6539     STORAGE                          
              STO-SY =     3390000.0257                STO-SY =           0.0000     STORAGE                          
                 WEL =           0.0000                   WEL =           0.0000     WEL-1                            
                 CHD =       3.0525E-08                   CHD =           0.0000     CHD-1                            

            TOTAL IN =    20716743.1008              TOTAL IN =    11825051.6539

          OUT:                                     OUT:
          ----                                     ----
              STO-SS =    21097539.9252                STO-SS =       94159.4340     STORAGE                          
              STO-SY =     4100000.0257                STO-SY =           0.0000     STORAGE                          
                 WEL =    37995053.0573                   WEL =    18245663.3901     WEL-1                            
                 CHD =     4027233.6983                   CHD =     2143035.6422     CHD-1                            

           TOTAL OUT =    67219826.7065             TOTAL OUT =    20482858.4663

            IN - OUT =   -46503083.6057              IN - OUT =    -8657806.8124

 PERCENT DISCREPANCY =        -105.77     PERCENT DISCREPANCY =         -53.60




         TIME SUMMARY AT END OF TIME STEP   15 IN STRESS PERIOD    2
                    SECONDS     MINUTES      HOURS       DAYS        YEARS
                    -----------------------------------------------------------
   TIME STEP LENGTH  7200.0      120.00      2.0000     8.33333E-02 2.28154E-04
 STRESS PERIOD TIME 1.08000E+05  1800.0      30.000      1.2500     3.42231E-03
         TOTAL TIME 1.94400E+05  3240.0      54.000      2.2500     6.16016E-03


         ****FAILED TO MEET SOLVER CONVERGENCE CRITERIA IN TIME STEP 15 OF STRESS PERIOD 2****

end timestep


start timestep kper="2" kstp="16" mode="normal"

 UBDSV1 SAVING           STO-SS ON UNIT   1027 AT TIME STEP     16, STRESS PERIOD      2
 UBDSV1 SAVING           STO-SY ON UNIT   1027 AT TIME STEP     16, STRESS PERIOD      2
 UBDSV1 SAVING     FLOW-JA-FACE ON UNIT   1027 AT TIME STEP     16, STRESS PERIOD      2
 UBDSV06 SAVING       DATA-SPDIS IN MODEL GWF_TRANSBASE    PACKAGE NPF             CONNECTED TO MODEL GWF_TRANSBASE    PACKAGE NPF              ON UNIT   1027 AT TIME STEP     16, STRESS PERIOD      2
 UBDSV06 SAVING              WEL IN MODEL GWF_TRANSBASE    PACKAGE GWF_TRANSBASE   CONNECTED TO MODEL GWF_TRANSBASE    PACKAGE WEL-1            ON UNIT   1027 AT TIME STEP     16, STRESS PERIOD      2
 UBDSV06 SAVING              CHD IN MODEL GWF_TRANSBASE    PACKAGE GWF_TRANSBASE   CONNECTED TO MODEL GWF_TRANSBASE    PACKAGE CHD-1            ON UNIT   1027 AT TIME STEP     16, STRESS PERIOD      2

 HEAD WILL BE SAVED ON UNIT 1028 AT END OF TIME STEP   16, STRESS PERIOD    2


  VOLUME BUDGET FOR ENTIRE MODEL AT END OF TIME STEP   16, STRESS PERIOD   2
  ---------------------------------------------------------------------------------------------------

     CUMULATIVE VOLUME      L**3       RATES FOR THIS TIME STEP      L**3/T          PACKAGE NAME    
     ------------------                 ------------------------                     ----------------

           IN:                                      IN:
           ---                                      ---
              STO-SS =    17584575.0529                STO-SS =     3093983.7329     STORAGE                          
              STO-SY =     3390000.0257                STO-SY =           0.0000     STORAGE                          
                 WEL =           0.0000                   WEL =           0.0000     WEL-1                            
                 CHD =       3.0525E-08                   CHD =           0.0000     CHD-1                            

            TOTAL IN =    20974575.0786              TOTAL IN =     3093983.7329

          OUT:                                     OUT:
          ----                                     ----
              STO-SS =    21478355.5137                STO-SS =     4569787.0618     STORAGE                          
              STO-SY =     4290000.0257                STO-SY =     2280000.0000     STORAGE                          
                 WEL =    39515525.0064                   WEL =    18245663.3901     WEL-1                            
                 CHD =     4188143.7366                   CHD =     1930920.4600     CHD-1                            

           TOTAL OUT =    69472024.2825             TOTAL OUT =    27026370.9119

            IN - OUT =   -48497449.2039              IN - OUT =   -23932387.1790

 PERCENT DISCREPANCY =        -107.24     PERCENT DISCREPANCY =        -158.91




         TIME SUMMARY AT END OF TIME STEP   16 IN STRESS PERIOD    2
                    SECONDS     MINUTES      HOURS       DAYS        YEARS
                    -----------------------------------------------------------
   TIME STEP LENGTH  7200.0      120.00      2.0000     8.33333E-02 2.28154E-04
 STRESS PERIOD TIME 1.15200E+05  1920.0      32.000      1.3333     3.65047E-03
         TOTAL TIME 2.01600E+05  3360.0      56.000      2.3333     6.38832E-03


         ****FAILED TO MEET SOLVER CONVERGENCE CRITERIA IN TIME STEP 16 OF STRESS PERIOD 2****

end timestep


start timestep kper="2" kstp="17" mode="normal"

 UBDSV1 SAVING           STO-SS ON UNIT   1027 AT TIME STEP     17, STRESS PERIOD      2
 UBDSV1 SAVING           STO-SY ON UNIT   1027 AT TIME STEP     17, STRESS PERIOD      2
 UBDSV1 SAVING     FLOW-JA-FACE ON UNIT   1027 AT TIME STEP     17, STRESS PERIOD      2
 UBDSV06 SAVING       DATA-SPDIS IN MODEL GWF_TRANSBASE    PACKAGE NPF             CONNECTED TO MODEL GWF_TRANSBASE    PACKAGE NPF              ON UNIT   1027 AT TIME STEP     17, STRESS PERIOD      2
 UBDSV06 SAVING              WEL IN MODEL GWF_TRANSBASE    PACKAGE GWF_TRANSBASE   CONNECTED TO MODEL GWF_TRANSBASE    PACKAGE WEL-1            ON UNIT   1027 AT TIME STEP     17, STRESS PERIOD      2
 UBDSV06 SAVING              CHD IN MODEL GWF_TRANSBASE    PACKAGE GWF_TRANSBASE   CONNECTED TO MODEL GWF_TRANSBASE    PACKAGE CHD-1            ON UNIT   1027 AT TIME STEP     17, STRESS PERIOD      2

 HEAD WILL BE SAVED ON UNIT 1028 AT END OF TIME STEP   17, STRESS PERIOD    2


  VOLUME BUDGET FOR ENTIRE MODEL AT END OF TIME STEP   17, STRESS PERIOD   2
  ---------------------------------------------------------------------------------------------------

     CUMULATIVE VOLUME      L**3       RATES FOR THIS TIME STEP      L**3/T          PACKAGE NAME    
     ------------------                 ------------------------                     ----------------

           IN:                                      IN:
           ---                                      ---
              STO-SS =    18457277.5281                STO-SS =    10472429.7021     STORAGE                          
              STO-SY =     3520000.0257                STO-SY =     1560000.0000     STORAGE                          
                 WEL =           0.0000                   WEL =           0.0000     WEL-1                            
                 CHD =       3.0525E-08                   CHD =           0.0000     CHD-1                            

            TOTAL IN =    21977277.5537              TOTAL IN =    12032429.7021

          OUT:                                     OUT:
          ----                                     ----
              STO-SS =    21478355.5137                STO-SS =           0.0000     STORAGE                          
              STO-SY =     4290000.0257                STO-SY =           0.0000     STORAGE                          
                 WEL =    41035996.9556                   WEL =    18245663.3901     WEL-1                            
                 CHD =     4328080.9273                   CHD =     1679246.2876     CHD-1                            

           TOTAL OUT =    71132433.4223             TOTAL OUT =    19924909.6777

            IN - OUT =   -49155155.8685              IN - OUT =    -7892479.9756

 PERCENT DISCREPANCY =        -105.59     PERCENT DISCREPANCY =         -49.39




         TIME SUMMARY AT END OF TIME STEP   17 IN STRESS PERIOD    2
                    SECONDS     MINUTES      HOURS       DAYS        YEARS
                    -----------------------------------------------------------
   TIME STEP LENGTH  7200.0      120.00      2.0000     8.33333E-02 2.28154E-04
 STRESS PERIOD TIME 1.22400E+05  2040.0      34.000      1.4167     3.87862E-03
         TOTAL TIME 2.08800E+05  3480.0      58.000      2.4167     6.61647E-03


         ****FAILED TO MEET SOLVER CONVERGENCE CRITERIA IN TIME STEP 17 OF STRESS PERIOD 2****

end timestep


start timestep kper="2" kstp="18" mode="normal"

 UBDSV1 SAVING           STO-SS ON UNIT   1027 AT TIME STEP     18, STRESS PERIOD      2
 UBDSV1 SAVING           STO-SY ON UNIT   1027 AT TIME STEP     18, STRESS PERIOD      2
 UBDSV1 SAVING     FLOW-JA-FACE ON UNIT   1027 AT TIME STEP     18, STRESS PERIOD      2
 UBDSV06 SAVING       DATA-SPDIS IN MODEL GWF_TRANSBASE    PACKAGE NPF             CONNECTED TO MODEL GWF_TRANSBASE    PACKAGE NPF              ON UNIT   1027 AT TIME STEP     18, STRESS PERIOD      2
 UBDSV06 SAVING              WEL IN MODEL GWF_TRANSBASE    PACKAGE GWF_TRANSBASE   CONNECTED TO MODEL GWF_TRANSBASE    PACKAGE WEL-1            ON UNIT   1027 AT TIME STEP     18, STRESS PERIOD      2
 UBDSV06 SAVING              CHD IN MODEL GWF_TRANSBASE    PACKAGE GWF_TRANSBASE   CONNECTED TO MODEL GWF_TRANSBASE    PACKAGE CHD-1            ON UNIT   1027 AT TIME STEP     18, STRESS PERIOD      2

 HEAD WILL BE SAVED ON UNIT 1028 AT END OF TIME STEP   18, STRESS PERIOD    2


  VOLUME BUDGET FOR ENTIRE MODEL AT END OF TIME STEP   18, STRESS PERIOD   2
  ---------------------------------------------------------------------------------------------------

     CUMULATIVE VOLUME      L**3       RATES FOR THIS TIME STEP      L**3/T          PACKAGE NAME    
     ------------------                 ------------------------                     ----------------

           IN:                                      IN:
           ---                                      ---
              STO-SS =    18522711.7959                STO-SS =      785211.2142     STORAGE                          
              STO-SY =     3520000.0257                STO-SY =           0.0000     STORAGE                          
                 WEL =           0.0000                   WEL =           0.0000     WEL-1                            
                 CHD =       3.0525E-08                   CHD =           0.0000     CHD-1                            

            TOTAL IN =    22042711.8216              TOTAL IN =      785211.2142

          OUT:                                     OUT:
          ----                                     ----
              STO-SS =    23009239.7184                STO-SS =    18370610.4562     STORAGE                          
              STO-SY =     4620000.0257                STO-SY =     3960000.0000     STORAGE                          
                 WEL =    42556468.9048                   WEL =    18245663.3901     WEL-1                            
                 CHD =     4475594.3662                   CHD =     1770161.2670     CHD-1                            

           TOTAL OUT =    74661303.0150             TOTAL OUT =    42346435.1133

            IN - OUT =   -52618591.1935              IN - OUT =   -41561223.8991

 PERCENT DISCREPANCY =        -108.82     PERCENT DISCREPANCY =        -192.72




         TIME SUMMARY AT END OF TIME STEP   18 IN STRESS PERIOD    2
                    SECONDS     MINUTES      HOURS       DAYS        YEARS
                    -----------------------------------------------------------
   TIME STEP LENGTH  7200.0      120.00      2.0000     8.33333E-02 2.28154E-04
 STRESS PERIOD TIME 1.29600E+05  2160.0      36.000      1.5000     4.10678E-03
         TOTAL TIME 2.16000E+05  3600.0      60.000      2.5000     6.84463E-03


         ****FAILED TO MEET SOLVER CONVERGENCE CRITERIA IN TIME STEP 18 OF STRESS PERIOD 2****

end timestep


start timestep kper="2" kstp="19" mode="normal"

 UBDSV1 SAVING           STO-SS ON UNIT   1027 AT TIME STEP     19, STRESS PERIOD      2
 UBDSV1 SAVING           STO-SY ON UNIT   1027 AT TIME STEP     19, STRESS PERIOD      2
 UBDSV1 SAVING     FLOW-JA-FACE ON UNIT   1027 AT TIME STEP     19, STRESS PERIOD      2
 UBDSV06 SAVING       DATA-SPDIS IN MODEL GWF_TRANSBASE    PACKAGE NPF             CONNECTED TO MODEL GWF_TRANSBASE    PACKAGE NPF              ON UNIT   1027 AT TIME STEP     19, STRESS PERIOD      2
 UBDSV06 SAVING              WEL IN MODEL GWF_TRANSBASE    PACKAGE GWF_TRANSBASE   CONNECTED TO MODEL GWF_TRANSBASE    PACKAGE WEL-1            ON UNIT   1027 AT TIME STEP     19, STRESS PERIOD      2
 UBDSV06 SAVING              CHD IN MODEL GWF_TRANSBASE    PACKAGE GWF_TRANSBASE   CONNECTED TO MODEL GWF_TRANSBASE    PACKAGE CHD-1            ON UNIT   1027 AT TIME STEP     19, STRESS PERIOD      2

 HEAD WILL BE SAVED ON UNIT 1028 AT END OF TIME STEP   19, STRESS PERIOD    2


  VOLUME BUDGET FOR ENTIRE MODEL AT END OF TIME STEP   19, STRESS PERIOD   2
  ---------------------------------------------------------------------------------------------------

     CUMULATIVE VOLUME      L**3       RATES FOR THIS TIME STEP      L**3/T          PACKAGE NAME    
     ------------------                 ------------------------                     ----------------

           IN:                                      IN:
           ---                                      ---
              STO-SS =    19584680.8087                STO-SS =    12743628.1531     STORAGE                          
              STO-SY =     3680000.0257                STO-SY =     1920000.0000     STORAGE                          
                 WEL =           0.0000                   WEL =           0.0000     WEL-1                            
                 CHD =       3.0525E-08                   CHD =           0.0000     CHD-1                            

            TOTAL IN =    23264680.8343              TOTAL IN =    14663628.1531

          OUT:                                     OUT:
          ----                                     ----
              STO-SS =    23009239.7184                STO-SS =           0.0000     STORAGE                          
              STO-SY =     4620000.0257                STO-SY =           0.0000     STORAGE                          
                 WEL =    44076940.8540                   WEL =    18245663.3901     WEL-1                            
                 CHD =     4617385.7997                   CHD =     1701497.2024     CHD-1                            

           TOTAL OUT =    76323566.3977             TOTAL OUT =    19947160.5925

            IN - OUT =   -53058885.5634              IN - OUT =    -5283532.4394

 PERCENT DISCREPANCY =        -106.56     PERCENT DISCREPANCY =         -30.53




         TIME SUMMARY AT END OF TIME STEP   19 IN STRESS PERIOD    2
                    SECONDS     MINUTES      HOURS       DAYS        YEARS
                    -----------------------------------------------------------
   TIME STEP LENGTH  7200.0      120.00      2.0000     8.33333E-02 2.28154E-04
 STRESS PERIOD TIME 1.36800E+05  2280.0      38.000      1.5833     4.33493E-03
         TOTAL TIME 2.23200E+05  3720.0      62.000      2.5833     7.07278E-03


         ****FAILED TO MEET SOLVER CONVERGENCE CRITERIA IN TIME STEP 19 OF STRESS PERIOD 2****

end timestep


start timestep kper="2" kstp="20" mode="normal"

 UBDSV1 SAVING           STO-SS ON UNIT   1027 AT TIME STEP     20, STRESS PERIOD      2
 UBDSV1 SAVING           STO-SY ON UNIT   1027 AT TIME STEP     20, STRESS PERIOD      2
 UBDSV1 SAVING     FLOW-JA-FACE ON UNIT   1027 AT TIME STEP     20, STRESS PERIOD      2
 UBDSV06 SAVING       DATA-SPDIS IN MODEL GWF_TRANSBASE    PACKAGE NPF             CONNECTED TO MODEL GWF_TRANSBASE    PACKAGE NPF              ON UNIT   1027 AT TIME STEP     20, STRESS PERIOD      2
 UBDSV06 SAVING              WEL IN MODEL GWF_TRANSBASE    PACKAGE GWF_TRANSBASE   CONNECTED TO MODEL GWF_TRANSBASE    PACKAGE WEL-1            ON UNIT   1027 AT TIME STEP     20, STRESS PERIOD      2
 UBDSV06 SAVING              CHD IN MODEL GWF_TRANSBASE    PACKAGE GWF_TRANSBASE   CONNECTED TO MODEL GWF_TRANSBASE    PACKAGE CHD-1            ON UNIT   1027 AT TIME STEP     20, STRESS PERIOD      2

 HEAD WILL BE SAVED ON UNIT 1028 AT END OF TIME STEP   20, STRESS PERIOD    2


  VOLUME BUDGET FOR ENTIRE MODEL AT END OF TIME STEP   20, STRESS PERIOD   2
  ---------------------------------------------------------------------------------------------------

     CUMULATIVE VOLUME      L**3       RATES FOR THIS TIME STEP      L**3/T          PACKAGE NAME    
     ------------------                 ------------------------                     ----------------

           IN:                                      IN:
           ---                                      ---
              STO-SS =    20063460.5728                STO-SS =     5745357.1692     STORAGE                          
              STO-SY =     3680000.0257                STO-SY =           0.0000     STORAGE                          
                 WEL =           0.0000                   WEL =           0.0000     WEL-1                            
                 CHD =       3.0525E-08                   CHD =           0.0000     CHD-1                            

            TOTAL IN =    23743460.5984              TOTAL IN =     5745357.1692

          OUT:                                     OUT:
          ----                                     ----
              STO-SS =    23014750.5424                STO-SS =       66129.8882     STORAGE                          
              STO-SY =     4620000.0257                STO-SY =           0.0000     STORAGE                          
                 WEL =    45597412.8031                   WEL =    18245663.3901     WEL-1                            
                 CHD =     4746406.3680                   CHD =     1548246.8193     CHD-1                            

           TOTAL OUT =    77978569.7392             TOTAL OUT =    19860040.0976

            IN - OUT =   -54235109.1408              IN - OUT =   -14114682.9284

 PERCENT DISCREPANCY =        -106.63     PERCENT DISCREPANCY =        -110.25




         TIME SUMMARY AT END OF TIME STEP   20 IN STRESS PERIOD    2
                    SECONDS     MINUTES      HOURS       DAYS        YEARS
                    -----------------------------------------------------------
   TIME STEP LENGTH  7200.0      120.00      2.0000     8.33333E-02 2.28154E-04
 STRESS PERIOD TIME 1.44000E+05  2400.0      40.000      1.6667     4.56308E-03
         TOTAL TIME 2.30400E+05  3840.0      64.000      2.6667     7.30094E-03


         ****FAILED TO MEET SOLVER CONVERGENCE CRITERIA IN TIME STEP 20 OF STRESS PERIOD 2****

end timestep


start timestep kper="2" kstp="21" mode="normal"

 UBDSV1 SAVING           STO-SS ON UNIT   1027 AT TIME STEP     21, STRESS PERIOD      2
 UBDSV1 SAVING           STO-SY ON UNIT   1027 AT TIME STEP     21, STRESS PERIOD      2
 UBDSV1 SAVING     FLOW-JA-FACE ON UNIT   1027 AT TIME STEP     21, STRESS PERIOD      2
 UBDSV06 SAVING       DATA-SPDIS IN MODEL GWF_TRANSBASE    PACKAGE NPF             CONNECTED TO MODEL GWF_TRANSBASE    PACKAGE NPF              ON UNIT   1027 AT TIME STEP     21, STRESS PERIOD      2
 UBDSV06 SAVING              WEL IN MODEL GWF_TRANSBASE    PACKAGE GWF_TRANSBASE   CONNECTED TO MODEL GWF_TRANSBASE    PACKAGE WEL-1            ON UNIT   1027 AT TIME STEP     21, STRESS PERIOD      2
 UBDSV06 SAVING              CHD IN MODEL GWF_TRANSBASE    PACKAGE GWF_TRANSBASE   CONNECTED TO MODEL GWF_TRANSBASE    PACKAGE CHD-1            ON UNIT   1027 AT TIME STEP     21, STRESS PERIOD      2

 HEAD WILL BE SAVED ON UNIT 1028 AT END OF TIME STEP   21, STRESS PERIOD    2


  VOLUME BUDGET FOR ENTIRE MODEL AT END OF TIME STEP   21, STRESS PERIOD   2
  ---------------------------------------------------------------------------------------------------

     CUMULATIVE VOLUME      L**3       RATES FOR THIS TIME STEP      L**3/T          PACKAGE NAME    
     ------------------                 ------------------------                     ----------------

           IN:                                      IN:
           ---                                      ---
              STO-SS =    20103371.0614                STO-SS =      478925.8638     STORAGE                          
              STO-SY =     3680000.0257                STO-SY =           0.0000     STORAGE                          
                 WEL =           0.0000                   WEL =           0.0000     WEL-1                            
                 CHD =       3.0525E-08                   CHD =           0.0000     CHD-1                            

            TOTAL IN =    23783371.0871              TOTAL IN =      478925.8638

          OUT:                                     OUT:
          ----                                     ----
              STO-SS =    23730568.4830                STO-SS =     8589815.2876     STORAGE                          
              STO-SY =     4670000.0257                STO-SY =      600000.0000     STORAGE                          
                 WEL =    47117884.7523                   WEL =    18245663.3901     WEL-1                            
                 CHD =     4876071.0681                   CHD =     1555976.4015     CHD-1                            

           TOTAL OUT =    80394524.3291             TOTAL OUT =    28991455.0792

            IN - OUT =   -56611153.2420              IN - OUT =   -28512529.2153

 PERCENT DISCREPANCY =        -108.68     PERCENT DISCREPANCY =        -193.50




         TIME SUMMARY AT END OF TIME STEP   21 IN STRESS PERIOD    2
                    SECONDS     MINUTES      HOURS       DAYS        YEARS
                    -----------------------------------------------------------
   TIME STEP LENGTH  7200.0      120.00      2.0000     8.33333E-02 2.28154E-04
 STRESS PERIOD TIME 1.51200E+05  2520.0      42.000      1.7500     4.79124E-03
         TOTAL TIME 2.37600E+05  3960.0      66.000      2.7500     7.52909E-03


         ****FAILED TO MEET SOLVER CONVERGENCE CRITERIA IN TIME STEP 21 OF STRESS PERIOD 2****

end timestep


start timestep kper="2" kstp="22" mode="normal"

 UBDSV1 SAVING           STO-SS ON UNIT   1027 AT TIME STEP     22, STRESS PERIOD      2
 UBDSV1 SAVING           STO-SY ON UNIT   1027 AT TIME STEP     22, STRESS PERIOD      2
 UBDSV1 SAVING     FLOW-JA-FACE ON UNIT   1027 AT TIME STEP     22, STRESS PERIOD      2
 UBDSV06 SAVING       DATA-SPDIS IN MODEL GWF_TRANSBASE    PACKAGE NPF             CONNECTED TO MODEL GWF_TRANSBASE    PACKAGE NPF              ON UNIT   1027 AT TIME STEP     22, STRESS PERIOD      2
 UBDSV06 SAVING              WEL IN MODEL GWF_TRANSBASE    PACKAGE GWF_TRANSBASE   CONNECTED TO MODEL GWF_TRANSBASE    PACKAGE WEL-1            ON UNIT   1027 AT TIME STEP     22, STRESS PERIOD      2
 UBDSV06 SAVING              CHD IN MODEL GWF_TRANSBASE    PACKAGE GWF_TRANSBASE   CONNECTED TO MODEL GWF_TRANSBASE    PACKAGE CHD-1            ON UNIT   1027 AT TIME STEP     22, STRESS PERIOD      2

 HEAD WILL BE SAVED ON UNIT 1028 AT END OF TIME STEP   22, STRESS PERIOD    2


  VOLUME BUDGET FOR ENTIRE MODEL AT END OF TIME STEP   22, STRESS PERIOD   2
  ---------------------------------------------------------------------------------------------------

     CUMULATIVE VOLUME      L**3       RATES FOR THIS TIME STEP      L**3/T          PACKAGE NAME    
     ------------------                 ------------------------                     ----------------

           IN:                                      IN:
           ---                                      ---
              STO-SS =    20829406.8014                STO-SS =     8712428.8800     STORAGE                          
              STO-SY =     3730000.0257                STO-SY =      600000.0000     STORAGE                          
                 WEL =           0.0000                   WEL =           0.0000     WEL-1                            
                 CHD =       3.0525E-08                   CHD =           0.0000     CHD-1                            

            TOTAL IN =    24559406.8271              TOTAL IN =     9312428.8800

          OUT:                                     OUT:
          ----                                     ----
              STO-SS =    23730568.4830                STO-SS =           0.0000     STORAGE                          
              STO-SY =     4670000.0257                STO-SY =           0.0000     STORAGE                          
                 WEL =    48638356.7015                   WEL =    18245663.3901     WEL-1                            
                 CHD =     4998071.1108                   CHD =     1464000.5119     CHD-1                            

           TOTAL OUT =    82036996.3210             TOTAL OUT =    19709663.9020

            IN - OUT =   -57477589.4939              IN - OUT =   -10397235.0219

 PERCENT DISCREPANCY =        -107.84     PERCENT DISCREPANCY =         -71.65




         TIME SUMMARY AT END OF TIME STEP   22 IN STRESS PERIOD    2
                    SECONDS     MINUTES      HOURS       DAYS        YEARS
                    -----------------------------------------------------------
   TIME STEP LENGTH  7200.0      120.00      2.0000     8.33333E-02 2.28154E-04
 STRESS PERIOD TIME 1.58400E+05  2640.0      44.000      1.8333     5.01939E-03
         TOTAL TIME 2.44800E+05  4080.0      68.000      2.8333     7.75724E-03


         ****FAILED TO MEET SOLVER CONVERGENCE CRITERIA IN TIME STEP 22 OF STRESS PERIOD 2****

end timestep


start timestep kper="2" kstp="23" mode="normal"

 UBDSV1 SAVING           STO-SS ON UNIT   1027 AT TIME STEP     23, STRESS PERIOD      2
 UBDSV1 SAVING           STO-SY ON UNIT   1027 AT TIME STEP     23, STRESS PERIOD      2
 UBDSV1 SAVING     FLOW-JA-FACE ON UNIT   1027 AT TIME STEP     23, STRESS PERIOD      2
 UBDSV06 SAVING       DATA-SPDIS IN MODEL GWF_TRANSBASE    PACKAGE NPF             CONNECTED TO MODEL GWF_TRANSBASE    PACKAGE NPF              ON UNIT   1027 AT TIME STEP     23, STRESS PERIOD      2
 UBDSV06 SAVING              WEL IN MODEL GWF_TRANSBASE    PACKAGE GWF_TRANSBASE   CONNECTED TO MODEL GWF_TRANSBASE    PACKAGE WEL-1            ON UNIT   1027 AT TIME STEP     23, STRESS PERIOD      2
 UBDSV06 SAVING              CHD IN MODEL GWF_TRANSBASE    PACKAGE GWF_TRANSBASE   CONNECTED TO MODEL GWF_TRANSBASE    PACKAGE CHD-1            ON UNIT   1027 AT TIME STEP     23, STRESS PERIOD      2

 HEAD WILL BE SAVED ON UNIT 1028 AT END OF TIME STEP   23, STRESS PERIOD    2


  VOLUME BUDGET FOR ENTIRE MODEL AT END OF TIME STEP   23, STRESS PERIOD   2
  ---------------------------------------------------------------------------------------------------

     CUMULATIVE VOLUME      L**3       RATES FOR THIS TIME STEP      L**3/T          PACKAGE NAME    
     ------------------                 ------------------------                     ----------------

           IN:                                      IN:
           ---                                      ---
              STO-SS =    20852752.1227                STO-SS =      280143.8552     STORAGE                          
              STO-SY =     3730000.0257                STO-SY =           0.0000     STORAGE                          
                 WEL =           0.0000                   WEL =           0.0000     WEL-1                            
                 CHD =       3.0525E-08                   CHD =           0.0000     CHD-1                            

            TOTAL IN =    24582752.1484              TOTAL IN =      280143.8552

          OUT:                                     OUT:
          ----                                     ----
              STO-SS =    24168594.7874                STO-SS =     5256315.6529     STORAGE                          
              STO-SY =     4690000.0257                STO-SY =      240000.0000     STORAGE                          
                 WEL =    50158828.6507                   WEL =    18245663.3901     WEL-1                            
                 CHD =     5119738.9041                   CHD =     1460013.5198     CHD-1                            

           TOTAL OUT =    84137162.3679             TOTAL OUT =    25201992.5628

            IN - OUT =   -59554410.2195              IN - OUT =   -24921848.7076

 PERCENT DISCREPANCY =        -109.56     PERCENT DISCREPANCY =        -195.60




         TIME SUMMARY AT END OF TIME STEP   23 IN STRESS PERIOD    2
                    SECONDS     MINUTES      HOURS       DAYS        YEARS
                    -----------------------------------------------------------
   TIME STEP LENGTH  7200.0      120.00      2.0000     8.33333E-02 2.28154E-04
 STRESS PERIOD TIME 1.65600E+05  2760.0      46.000      1.9167     5.24755E-03
         TOTAL TIME 2.52000E+05  4200.0      70.000      2.9167     7.98540E-03


         ****FAILED TO MEET SOLVER CONVERGENCE CRITERIA IN TIME STEP 23 OF STRESS PERIOD 2****

end timestep


start timestep kper="2" kstp="24" mode="normal"

 UBDSV1 SAVING           STO-SS ON UNIT   1027 AT TIME STEP     24, STRESS PERIOD      2
 UBDSV1 SAVING           STO-SY ON UNIT   1027 AT TIME STEP     24, STRESS PERIOD      2
 UBDSV1 SAVING     FLOW-JA-FACE ON UNIT   1027 AT TIME STEP     24, STRESS PERIOD      2
 UBDSV06 SAVING       DATA-SPDIS IN MODEL GWF_TRANSBASE    PACKAGE NPF             CONNECTED TO MODEL GWF_TRANSBASE    PACKAGE NPF              ON UNIT   1027 AT TIME STEP     24, STRESS PERIOD      2
 UBDSV06 SAVING              WEL IN MODEL GWF_TRANSBASE    PACKAGE GWF_TRANSBASE   CONNECTED TO MODEL GWF_TRANSBASE    PACKAGE WEL-1            ON UNIT   1027 AT TIME STEP     24, STRESS PERIOD      2
 UBDSV06 SAVING              CHD IN MODEL GWF_TRANSBASE    PACKAGE GWF_TRANSBASE   CONNECTED TO MODEL GWF_TRANSBASE    PACKAGE CHD-1            ON UNIT   1027 AT TIME STEP     24, STRESS PERIOD      2

 HEAD WILL BE SAVED ON UNIT 1028 AT END OF TIME STEP   24, STRESS PERIOD    2


  VOLUME BUDGET FOR ENTIRE MODEL AT END OF TIME STEP   24, STRESS PERIOD   2
  ---------------------------------------------------------------------------------------------------

     CUMULATIVE VOLUME      L**3       RATES FOR THIS TIME STEP      L**3/T          PACKAGE NAME    
     ------------------                 ------------------------                     ----------------

           IN:                                      IN:
           ---                                      ---
              STO-SS =    21655351.0074                STO-SS =     9631186.6168     STORAGE                          
              STO-SY =     3870000.0257                STO-SY =     1680000.0000     STORAGE                          
                 WEL =           0.0000                   WEL =           0.0000     WEL-1                            
                 CHD =       3.0525E-08                   CHD =           0.0000     CHD-1                            

            TOTAL IN =    25525351.0331              TOTAL IN =    11311186.6168

          OUT:                                     OUT:
          ----                                     ----
              STO-SS =    24168594.7874                STO-SS =           0.0000     STORAGE                          
              STO-SY =     4690000.0257                STO-SY =           0.0000     STORAGE                          
                 WEL =    51679300.5998                   WEL =    18245663.3901     WEL-1                            
                 CHD =     5231221.4602                   CHD =     1337790.6731     CHD-1                            

           TOTAL OUT =    85769116.8731             TOTAL OUT =    19583454.0632

            IN - OUT =   -60243765.8400              IN - OUT =    -8272267.4463

 PERCENT DISCREPANCY =        -108.26     PERCENT DISCREPANCY =         -53.55




         TIME SUMMARY AT END OF TIME STEP   24 IN STRESS PERIOD    2
                    SECONDS     MINUTES      HOURS       DAYS        YEARS
                    -----------------------------------------------------------
   TIME STEP LENGTH  7200.0      120.00      2.0000     8.33333E-02 2.28154E-04
 STRESS PERIOD TIME 1.72800E+05  2880.0      48.000      2.0000     5.47570E-03
         TOTAL TIME 2.59200E+05  4320.0      72.000      3.0000     8.21355E-03


         ****FAILED TO MEET SOLVER CONVERGENCE CRITERIA IN TIME STEP 24 OF STRESS PERIOD 2****

end timestep


start timestep kper="2" kstp="25" mode="normal"

 UBDSV1 SAVING           STO-SS ON UNIT   1027 AT TIME STEP     25, STRESS PERIOD      2
 UBDSV1 SAVING           STO-SY ON UNIT   1027 AT TIME STEP     25, STRESS PERIOD      2
 UBDSV1 SAVING     FLOW-JA-FACE ON UNIT   1027 AT TIME STEP     25, STRESS PERIOD      2
 UBDSV06 SAVING       DATA-SPDIS IN MODEL GWF_TRANSBASE    PACKAGE NPF             CONNECTED TO MODEL GWF_TRANSBASE    PACKAGE NPF              ON UNIT   1027 AT TIME STEP     25, STRESS PERIOD      2
 UBDSV06 SAVING              WEL IN MODEL GWF_TRANSBASE    PACKAGE GWF_TRANSBASE   CONNECTED TO MODEL GWF_TRANSBASE    PACKAGE WEL-1            ON UNIT   1027 AT TIME STEP     25, STRESS PERIOD      2
[...]

 HEAD WILL BE SAVED ON UNIT 1028 AT END OF TIME STEP  115, STRESS PERIOD    4


  VOLUME BUDGET FOR ENTIRE MODEL AT END OF TIME STEP  115, STRESS PERIOD   4
  ---------------------------------------------------------------------------------------------------

     CUMULATIVE VOLUME      L**3       RATES FOR THIS TIME STEP      L**3/T          PACKAGE NAME    
     ------------------                 ------------------------                     ----------------

           IN:                                      IN:
           ---                                      ---
              STO-SS =    58288017.7859                STO-SS =           0.0000     STORAGE                          
              STO-SY =    15220000.0257                STO-SY =           0.0000     STORAGE                          
                 WEL =           0.0000                   WEL =           0.0000     WEL-1                            
                 CHD =     7994518.1121                   CHD =      401577.8413     CHD-1                            

            TOTAL IN =    81502535.9236              TOTAL IN =      401577.8413

          OUT:                                     OUT:
          ----                                     ----
              STO-SS =    58287551.2859                STO-SS =           0.0000     STORAGE                          
              STO-SY =     7780000.0257                STO-SY =           0.0000     STORAGE                          
                 WEL =   197644624.1580                   WEL =           0.1500     WEL-1                            
                 CHD =    16461945.1811                   CHD =           0.0000     CHD-1                            

           TOTAL OUT =   280174120.6506             TOTAL OUT =           0.1500

            IN - OUT =  -198671584.7270              IN - OUT =      401577.6913

 PERCENT DISCREPANCY =        -109.86     PERCENT DISCREPANCY =         200.00




         TIME SUMMARY AT END OF TIME STEP  115 IN STRESS PERIOD    4
                    SECONDS     MINUTES      HOURS       DAYS        YEARS
                    -----------------------------------------------------------
   TIME STEP LENGTH  7200.0      120.00      2.0000     8.33333E-02 2.28154E-04
 STRESS PERIOD TIME 8.28000E+05  13800.      230.00      9.5833     2.62377E-02
         TOTAL TIME 2.64240E+06  44040.      734.00      30.583     8.37326E-02


         ****FAILED TO MEET SOLVER CONVERGENCE CRITERIA IN TIME STEP 115 OF STRESS PERIOD 4****

end timestep


start timestep kper="4" kstp="116" mode="normal"

 UBDSV1 SAVING           STO-SS ON UNIT   1027 AT TIME STEP    116, STRESS PERIOD      4
 UBDSV1 SAVING           STO-SY ON UNIT   1027 AT TIME STEP    116, STRESS PERIOD      4
 UBDSV1 SAVING     FLOW-JA-FACE ON UNIT   1027 AT TIME STEP    116, STRESS PERIOD      4
 UBDSV06 SAVING       DATA-SPDIS IN MODEL GWF_TRANSBASE    PACKAGE NPF             CONNECTED TO MODEL GWF_TRANSBASE    PACKAGE NPF              ON UNIT   1027 AT TIME STEP    116, STRESS PERIOD      4
 UBDSV06 SAVING              WEL IN MODEL GWF_TRANSBASE    PACKAGE GWF_TRANSBASE   CONNECTED TO MODEL GWF_TRANSBASE    PACKAGE WEL-1            ON UNIT   1027 AT TIME STEP    116, STRESS PERIOD      4
 UBDSV06 SAVING              CHD IN MODEL GWF_TRANSBASE    PACKAGE GWF_TRANSBASE   CONNECTED TO MODEL GWF_TRANSBASE    PACKAGE CHD-1            ON UNIT   1027 AT TIME STEP    116, STRESS PERIOD      4

 HEAD WILL BE SAVED ON UNIT 1028 AT END OF TIME STEP  116, STRESS PERIOD    4


  VOLUME BUDGET FOR ENTIRE MODEL AT END OF TIME STEP  116, STRESS PERIOD   4
  ---------------------------------------------------------------------------------------------------

     CUMULATIVE VOLUME      L**3       RATES FOR THIS TIME STEP      L**3/T          PACKAGE NAME    
     ------------------                 ------------------------                     ----------------

           IN:                                      IN:
           ---                                      ---
              STO-SS =    58288017.7859                STO-SS =           0.0000     STORAGE                          
              STO-SY =    15220000.0257                STO-SY =           0.0000     STORAGE                          
                 WEL =           0.0000                   WEL =           0.0000     WEL-1                            
                 CHD =     8027982.9322                   CHD =      401577.8413     CHD-1                            

            TOTAL IN =    81536000.7438              TOTAL IN =      401577.8413

          OUT:                                     OUT:
          ----                                     ----
              STO-SS =    58287551.2859                STO-SS =           0.0000     STORAGE                          
              STO-SY =     7780000.0257                STO-SY =           0.0000     STORAGE                          
                 WEL =   197644624.1705                   WEL =           0.1500     WEL-1                            
                 CHD =    16461945.1811                   CHD =           0.0000     CHD-1                            

           TOTAL OUT =   280174120.6631             TOTAL OUT =           0.1500

            IN - OUT =  -198638119.9194              IN - OUT =      401577.6913

 PERCENT DISCREPANCY =        -109.83     PERCENT DISCREPANCY =         200.00




         TIME SUMMARY AT END OF TIME STEP  116 IN STRESS PERIOD    4
                    SECONDS     MINUTES      HOURS       DAYS        YEARS
                    -----------------------------------------------------------
   TIME STEP LENGTH  7200.0      120.00      2.0000     8.33333E-02 2.28154E-04
 STRESS PERIOD TIME 8.35200E+05  13920.      232.00      9.6667     2.64659E-02
         TOTAL TIME 2.64960E+06  44160.      736.00      30.667     8.39608E-02


         ****FAILED TO MEET SOLVER CONVERGENCE CRITERIA IN TIME STEP 116 OF STRESS PERIOD 4****

end timestep


start timestep kper="4" kstp="117" mode="normal"

 UBDSV1 SAVING           STO-SS ON UNIT   1027 AT TIME STEP    117, STRESS PERIOD      4
 UBDSV1 SAVING           STO-SY ON UNIT   1027 AT TIME STEP    117, STRESS PERIOD      4
 UBDSV1 SAVING     FLOW-JA-FACE ON UNIT   1027 AT TIME STEP    117, STRESS PERIOD      4
 UBDSV06 SAVING       DATA-SPDIS IN MODEL GWF_TRANSBASE    PACKAGE NPF             CONNECTED TO MODEL GWF_TRANSBASE    PACKAGE NPF              ON UNIT   1027 AT TIME STEP    117, STRESS PERIOD      4
 UBDSV06 SAVING              WEL IN MODEL GWF_TRANSBASE    PACKAGE GWF_TRANSBASE   CONNECTED TO MODEL GWF_TRANSBASE    PACKAGE WEL-1            ON UNIT   1027 AT TIME STEP    117, STRESS PERIOD      4
 UBDSV06 SAVING              CHD IN MODEL GWF_TRANSBASE    PACKAGE GWF_TRANSBASE   CONNECTED TO MODEL GWF_TRANSBASE    PACKAGE CHD-1            ON UNIT   1027 AT TIME STEP    117, STRESS PERIOD      4

 HEAD WILL BE SAVED ON UNIT 1028 AT END OF TIME STEP  117, STRESS PERIOD    4


  VOLUME BUDGET FOR ENTIRE MODEL AT END OF TIME STEP  117, STRESS PERIOD   4
  ---------------------------------------------------------------------------------------------------

     CUMULATIVE VOLUME      L**3       RATES FOR THIS TIME STEP      L**3/T          PACKAGE NAME    
     ------------------                 ------------------------                     ----------------

           IN:                                      IN:
           ---                                      ---
              STO-SS =    58288017.7859                STO-SS =           0.0000     STORAGE                          
              STO-SY =    15220000.0257                STO-SY =           0.0000     STORAGE                          
                 WEL =           0.0000                   WEL =           0.0000     WEL-1                            
                 CHD =     8061447.7523                   CHD =      401577.8413     CHD-1                            

            TOTAL IN =    81569465.5639              TOTAL IN =      401577.8413

          OUT:                                     OUT:
          ----                                     ----
              STO-SS =    58287551.2859                STO-SS =           0.0000     STORAGE                          
              STO-SY =     7780000.0257                STO-SY =           0.0000     STORAGE                          
                 WEL =   197644624.1830                   WEL =           0.1500     WEL-1                            
                 CHD =    16461945.1811                   CHD =           0.0000     CHD-1                            

           TOTAL OUT =   280174120.6756             TOTAL OUT =           0.1500

            IN - OUT =  -198604655.1118              IN - OUT =      401577.6913

 PERCENT DISCREPANCY =        -109.80     PERCENT DISCREPANCY =         200.00




         TIME SUMMARY AT END OF TIME STEP  117 IN STRESS PERIOD    4
                    SECONDS     MINUTES      HOURS       DAYS        YEARS
                    -----------------------------------------------------------
   TIME STEP LENGTH  7200.0      120.00      2.0000     8.33333E-02 2.28154E-04
 STRESS PERIOD TIME 8.42400E+05  14040.      234.00      9.7500     2.66940E-02
         TOTAL TIME 2.65680E+06  44280.      738.00      30.750     8.41889E-02


         ****FAILED TO MEET SOLVER CONVERGENCE CRITERIA IN TIME STEP 117 OF STRESS PERIOD 4****

end timestep


start timestep kper="4" kstp="118" mode="normal"

 UBDSV1 SAVING           STO-SS ON UNIT   1027 AT TIME STEP    118, STRESS PERIOD      4
 UBDSV1 SAVING           STO-SY ON UNIT   1027 AT TIME STEP    118, STRESS PERIOD      4
 UBDSV1 SAVING     FLOW-JA-FACE ON UNIT   1027 AT TIME STEP    118, STRESS PERIOD      4
 UBDSV06 SAVING       DATA-SPDIS IN MODEL GWF_TRANSBASE    PACKAGE NPF             CONNECTED TO MODEL GWF_TRANSBASE    PACKAGE NPF              ON UNIT   1027 AT TIME STEP    118, STRESS PERIOD      4
 UBDSV06 SAVING              WEL IN MODEL GWF_TRANSBASE    PACKAGE GWF_TRANSBASE   CONNECTED TO MODEL GWF_TRANSBASE    PACKAGE WEL-1            ON UNIT   1027 AT TIME STEP    118, STRESS PERIOD      4
 UBDSV06 SAVING              CHD IN MODEL GWF_TRANSBASE    PACKAGE GWF_TRANSBASE   CONNECTED TO MODEL GWF_TRANSBASE    PACKAGE CHD-1            ON UNIT   1027 AT TIME STEP    118, STRESS PERIOD      4

 HEAD WILL BE SAVED ON UNIT 1028 AT END OF TIME STEP  118, STRESS PERIOD    4


  VOLUME BUDGET FOR ENTIRE MODEL AT END OF TIME STEP  118, STRESS PERIOD   4
  ---------------------------------------------------------------------------------------------------

     CUMULATIVE VOLUME      L**3       RATES FOR THIS TIME STEP      L**3/T          PACKAGE NAME    
     ------------------                 ------------------------                     ----------------

           IN:                                      IN:
           ---                                      ---
              STO-SS =    58288017.7859                STO-SS =           0.0000     STORAGE                          
              STO-SY =    15220000.0257                STO-SY =           0.0000     STORAGE                          
                 WEL =           0.0000                   WEL =           0.0000     WEL-1                            
                 CHD =     8094912.5724                   CHD =      401577.8413     CHD-1                            

            TOTAL IN =    81602930.3840              TOTAL IN =      401577.8413

          OUT:                                     OUT:
          ----                                     ----
              STO-SS =    58287551.2859                STO-SS =           0.0000     STORAGE                          
              STO-SY =     7780000.0257                STO-SY =           0.0000     STORAGE                          
                 WEL =   197644624.1955                   WEL =           0.1500     WEL-1                            
                 CHD =    16461945.1811                   CHD =           0.0000     CHD-1                            

           TOTAL OUT =   280174120.6881             TOTAL OUT =           0.1500

            IN - OUT =  -198571190.3042              IN - OUT =      401577.6913

 PERCENT DISCREPANCY =        -109.78     PERCENT DISCREPANCY =         200.00




         TIME SUMMARY AT END OF TIME STEP  118 IN STRESS PERIOD    4
                    SECONDS     MINUTES      HOURS       DAYS        YEARS
                    -----------------------------------------------------------
   TIME STEP LENGTH  7200.0      120.00      2.0000     8.33333E-02 2.28154E-04
 STRESS PERIOD TIME 8.49600E+05  14160.      236.00      9.8333     2.69222E-02
         TOTAL TIME 2.66400E+06  44400.      740.00      30.833     8.44171E-02


         ****FAILED TO MEET SOLVER CONVERGENCE CRITERIA IN TIME STEP 118 OF STRESS PERIOD 4****

end timestep


start timestep kper="4" kstp="119" mode="normal"

 UBDSV1 SAVING           STO-SS ON UNIT   1027 AT TIME STEP    119, STRESS PERIOD      4
 UBDSV1 SAVING           STO-SY ON UNIT   1027 AT TIME STEP    119, STRESS PERIOD      4
 UBDSV1 SAVING     FLOW-JA-FACE ON UNIT   1027 AT TIME STEP    119, STRESS PERIOD      4
 UBDSV06 SAVING       DATA-SPDIS IN MODEL GWF_TRANSBASE    PACKAGE NPF             CONNECTED TO MODEL GWF_TRANSBASE    PACKAGE NPF              ON UNIT   1027 AT TIME STEP    119, STRESS PERIOD      4
 UBDSV06 SAVING              WEL IN MODEL GWF_TRANSBASE    PACKAGE GWF_TRANSBASE   CONNECTED TO MODEL GWF_TRANSBASE    PACKAGE WEL-1            ON UNIT   1027 AT TIME STEP    119, STRESS PERIOD      4
 UBDSV06 SAVING              CHD IN MODEL GWF_TRANSBASE    PACKAGE GWF_TRANSBASE   CONNECTED TO MODEL GWF_TRANSBASE    PACKAGE CHD-1            ON UNIT   1027 AT TIME STEP    119, STRESS PERIOD      4

 HEAD WILL BE SAVED ON UNIT 1028 AT END OF TIME STEP  119, STRESS PERIOD    4


  VOLUME BUDGET FOR ENTIRE MODEL AT END OF TIME STEP  119, STRESS PERIOD   4
  ---------------------------------------------------------------------------------------------------

     CUMULATIVE VOLUME      L**3       RATES FOR THIS TIME STEP      L**3/T          PACKAGE NAME    
     ------------------                 ------------------------                     ----------------

           IN:                                      IN:
           ---                                      ---
              STO-SS =    58288017.7859                STO-SS =           0.0000     STORAGE                          
              STO-SY =    15220000.0257                STO-SY =           0.0000     STORAGE                          
                 WEL =           0.0000                   WEL =           0.0000     WEL-1                            
                 CHD =     8128377.3925                   CHD =      401577.8413     CHD-1                            

            TOTAL IN =    81636395.2041              TOTAL IN =      401577.8413

          OUT:                                     OUT:
          ----                                     ----
              STO-SS =    58287551.2859                STO-SS =           0.0000     STORAGE                          
              STO-SY =     7780000.0257                STO-SY =           0.0000     STORAGE                          
                 WEL =   197644624.2080                   WEL =           0.1500     WEL-1                            
                 CHD =    16461945.1811                   CHD =           0.0000     CHD-1                            

           TOTAL OUT =   280174120.7006             TOTAL OUT =           0.1500

            IN - OUT =  -198537725.4965              IN - OUT =      401577.6913

 PERCENT DISCREPANCY =        -109.75     PERCENT DISCREPANCY =         200.00




         TIME SUMMARY AT END OF TIME STEP  119 IN STRESS PERIOD    4
                    SECONDS     MINUTES      HOURS       DAYS        YEARS
                    -----------------------------------------------------------
   TIME STEP LENGTH  7200.0      120.00      2.0000     8.33333E-02 2.28154E-04
 STRESS PERIOD TIME 8.56800E+05  14280.      238.00      9.9167     2.71504E-02
         TOTAL TIME 2.67120E+06  44520.      742.00      30.917     8.46452E-02


         ****FAILED TO MEET SOLVER CONVERGENCE CRITERIA IN TIME STEP 119 OF STRESS PERIOD 4****

end timestep


start timestep kper="4" kstp="120" mode="normal"

 UBDSV1 SAVING           STO-SS ON UNIT   1027 AT TIME STEP    120, STRESS PERIOD      4
 UBDSV1 SAVING           STO-SY ON UNIT   1027 AT TIME STEP    120, STRESS PERIOD      4
 UBDSV1 SAVING     FLOW-JA-FACE ON UNIT   1027 AT TIME STEP    120, STRESS PERIOD      4
 UBDSV06 SAVING       DATA-SPDIS IN MODEL GWF_TRANSBASE    PACKAGE NPF             CONNECTED TO MODEL GWF_TRANSBASE    PACKAGE NPF              ON UNIT   1027 AT TIME STEP    120, STRESS PERIOD      4
 UBDSV06 SAVING              WEL IN MODEL GWF_TRANSBASE    PACKAGE GWF_TRANSBASE   CONNECTED TO MODEL GWF_TRANSBASE    PACKAGE WEL-1            ON UNIT   1027 AT TIME STEP    120, STRESS PERIOD      4
 UBDSV06 SAVING              CHD IN MODEL GWF_TRANSBASE    PACKAGE GWF_TRANSBASE   CONNECTED TO MODEL GWF_TRANSBASE    PACKAGE CHD-1            ON UNIT   1027 AT TIME STEP    120, STRESS PERIOD      4

 HEAD WILL BE SAVED ON UNIT 1028 AT END OF TIME STEP  120, STRESS PERIOD    4


  VOLUME BUDGET FOR ENTIRE MODEL AT END OF TIME STEP  120, STRESS PERIOD   4
  ---------------------------------------------------------------------------------------------------

     CUMULATIVE VOLUME      L**3       RATES FOR THIS TIME STEP      L**3/T          PACKAGE NAME    
     ------------------                 ------------------------                     ----------------

           IN:                                      IN:
           ---                                      ---
              STO-SS =    58288017.7859                STO-SS =           0.0000     STORAGE                          
              STO-SY =    15220000.0257                STO-SY =           0.0000     STORAGE                          
                 WEL =           0.0000                   WEL =           0.0000     WEL-1                            
                 CHD =     8161842.2126                   CHD =      401577.8413     CHD-1                            

            TOTAL IN =    81669860.0242              TOTAL IN =      401577.8413

          OUT:                                     OUT:
          ----                                     ----
              STO-SS =    58287551.2859                STO-SS =           0.0000     STORAGE                          
              STO-SY =     7780000.0257                STO-SY =           0.0000     STORAGE                          
                 WEL =   197644624.2205                   WEL =           0.1500     WEL-1                            
                 CHD =    16461945.1811                   CHD =           0.0000     CHD-1                            

           TOTAL OUT =   280174120.7131             TOTAL OUT =           0.1500

            IN - OUT =  -198504260.6889              IN - OUT =      401577.6913

 PERCENT DISCREPANCY =        -109.72     PERCENT DISCREPANCY =         200.00




         TIME SUMMARY AT END OF TIME STEP  120 IN STRESS PERIOD    4
                    SECONDS     MINUTES      HOURS       DAYS        YEARS
                    -----------------------------------------------------------
   TIME STEP LENGTH  7200.0      120.00      2.0000     8.33333E-02 2.28154E-04
 STRESS PERIOD TIME 8.64000E+05  14400.      240.00      10.000     2.73785E-02
         TOTAL TIME 2.67840E+06  44640.      744.00      31.000     8.48734E-02


         ****FAILED TO MEET SOLVER CONVERGENCE CRITERIA IN TIME STEP 120 OF STRESS PERIOD 4****

end timestep

