                                   MODFLOW 6
                U.S. GEOLOGICAL SURVEY MODULAR HYDROLOGIC MODEL
                            VERSION 6.6.2 05/12/2025

   MODFLOW 6 compiled May 12 2025 12:42:18 with Intel(R) Fortran Intel(R) 64
   Compiler Classic for applications running on Intel(R) 64, Version 2021.7.0
                             Build 20220726_000000

This software has been approved for release by the U.S. Geological 
Survey (USGS). Although the software has been subjected to rigorous 
review, the USGS reserves the right to update the software as needed 
pursuant to further analysis and review. No warranty, expressed or 
implied, is made by the USGS or the U.S. Government as to the 
functionality of the software and related material nor shall the 
fact of release constitute any such warranty. Furthermore, the 
software is released on condition that neither the USGS nor the U.S. 
Government shall be held liable for any damages resulting from its 
authorized or unauthorized use. Also refer to the USGS Water 
Resources Software User Rights Notice for complete use, copyright, 
and distribution information.


As a work of the United States Government, this USGS product is 
in the public domain within the United States. You can copy, 
modify, distribute, and perform the work, even for commercial 
purposes, all without asking permission. Additionally, USGS 
waives copyright and related rights in the work worldwide 
through CC0 1.0 Universal Public Domain Dedication 
(https://creativecommons.org/publicdomain/zero/1.0/).

The following GNU Lesser General Public License (LGPL) libraries
are used in this USGS product:

    SPARSKIT version 2.0
      ilut, luson, and qsplit 
      (https://www-users.cse.umn.edu/~saad/software/SPARSKIT/)

    RCM - Reverse Cuthill McKee Ordering
      (https://people.math.sc.edu/Burkardt/f_src/rcm/rcm.html)

    BLAS - Basic Linear Algebra Subprograms Level 1
      (https://people.math.sc.edu/Burkardt/f_src/blas1_d/blas1_d.html)

    SPARSEKIT - Sparse Matrix Utility Package
      amux, dperm, dvperm, rperm, and cperm
      (https://people.sc.fsu.edu/~jburkardt/f77_src/sparsekit/sparsekit.html)

The following BSD-3 License libraries are used in this USGS product:

    Modern Fortran DAG Library
      Copyright (c) 2018, Jacob Williams
      All rights reserved.
      (https://github.com/jacobwilliams/daglib)

MODFLOW 6 compiler options: /Isrc\libmf6core.a.p /Isrc /I..\src
/Isrc\libmf6_external.a.p /MT /nologo /warn:general /warn:truncated_source
/stand:f18 /O2 /fpe:0 /heap-arrays:0 /traceback /fpp /Qdiag-disable:7416
/Qdiag-disable:7025 /Qdiag-disable:5268 /Qdiag-disable:10448
/Fdsrc\libmf6core.a.p\Utilities_compilerversion.F90.pdb
/module:src\libmf6core.a.p
/Fosrc/libmf6core.a.p/Utilities_compilerversion.F90.obj /c

System command used to initiate simulation:
"C:\Users\lucialabarca\pymf6-validation\.pixi\envs\default\python.EXE" system_well_control.py

MODFLOW was compiled using uniform precision.

Real Variables
  KIND: 8
  TINY (smallest non-zero value):    2.225074-308
  HUGE (largest value):    1.797693+308
  PRECISION: 15
  SIZE IN BITS: 64

Integer Variables
  KIND: 4
  HUGE (largest value): 2147483647
  SIZE IN BITS: 32

Long Integer Variables
  KIND: 8
  HUGE (largest value): 9223372036854775807
  SIZE IN BITS: 64

Logical Variables
  KIND: 4
  SIZE IN BITS: 32
 

 OPENED mfsim.nam
 FILE TYPE:NAM6               UNIT 1002   STATUS:OLD                 
 FORMAT:FORMATTED              ACCESS:SEQUENTIAL          
 ACTION:READ                

 # File generated by Flopy version 3.9.3 on 06/29/2025 at 15:13:48.

 OPENED gwf_transbase.tdis
 FILE TYPE:TDIS6              UNIT 1003   STATUS:OLD                 
 FORMAT:FORMATTED              ACCESS:SEQUENTIAL          
 ACTION:READ                

 # File generated by Flopy version 3.9.3 on 06/29/2025 at 15:13:48.

 OPENED gwf_transbase.nam
 FILE TYPE:GWF6               UNIT 1004   STATUS:OLD                 
 FORMAT:FORMATTED              ACCESS:SEQUENTIAL          
 ACTION:READ                

 # File generated by Flopy version 3.9.3 on 06/29/2025 at 15:13:48.

 OPENED gwf_transbase.dis
 FILE TYPE:DIS6               UNIT 1005   STATUS:OLD                 
 FORMAT:FORMATTED              ACCESS:SEQUENTIAL          
 ACTION:READ                

 # File generated by Flopy version 3.9.3 on 06/29/2025 at 15:13:48.

 OPENED gwf_transbase.npf
 FILE TYPE:NPF6               UNIT 1006   STATUS:OLD                 
 FORMAT:FORMATTED              ACCESS:SEQUENTIAL          
 ACTION:READ                

 # File generated by Flopy version 3.9.3 on 06/29/2025 at 15:13:48.

 OPENED gwf_transbase.sto
 FILE TYPE:STO6               UNIT 1007   STATUS:OLD                 
 FORMAT:FORMATTED              ACCESS:SEQUENTIAL          
 ACTION:READ                

 # File generated by Flopy version 3.9.3 on 06/29/2025 at 15:13:48.

 OPENED gwf_transbase.ic
 FILE TYPE:IC6                UNIT 1008   STATUS:OLD                 
 FORMAT:FORMATTED              ACCESS:SEQUENTIAL          
 ACTION:READ                

 # File generated by Flopy version 3.9.3 on 06/29/2025 at 15:13:48.

 OPENED gwf_transbase.oc
 FILE TYPE:OC6       UNIT 1009   STATUS:OLD                 
 FORMAT:FORMATTED              ACCESS:SEQUENTIAL          
 ACTION:READ                


 OPENED gwf_transbase.wel
 FILE TYPE:WEL6               UNIT 1010   STATUS:OLD                 
 FORMAT:FORMATTED              ACCESS:SEQUENTIAL          
 ACTION:READ                

 # File generated by Flopy version 3.9.3 on 06/29/2025 at 15:13:48.
    AUXILIARY  VARIABLE: CONCENTRATION   

 OPENED gwf_transbase.chd
 FILE TYPE:CHD6               UNIT 1011   STATUS:OLD                 
 FORMAT:FORMATTED              ACCESS:SEQUENTIAL          
 ACTION:READ                

 # File generated by Flopy version 3.9.3 on 06/29/2025 at 15:13:48.
    AUXILIARY  VARIABLE: CONCENTRATION   

 OPENED gwt_transbase.nam
 FILE TYPE:GWT6               UNIT 1012   STATUS:OLD                 
 FORMAT:FORMATTED              ACCESS:SEQUENTIAL          
 ACTION:READ                

 # File generated by Flopy version 3.9.3 on 06/29/2025 at 15:13:48.

 OPENED gwt_transbase.dis
 FILE TYPE:DIS6               UNIT 1013   STATUS:OLD                 
 FORMAT:FORMATTED              ACCESS:SEQUENTIAL          
 ACTION:READ                

 # File generated by Flopy version 3.9.3 on 06/29/2025 at 15:13:48.

 OPENED gwt_transbase.ic
 FILE TYPE:IC6                UNIT 1014   STATUS:OLD                 
 FORMAT:FORMATTED              ACCESS:SEQUENTIAL          
 ACTION:READ                

 # File generated by Flopy version 3.9.3 on 06/29/2025 at 15:13:48.

 OPENED gwt_transbase.mst
 FILE TYPE:MST6      UNIT 1015   STATUS:OLD                 
 FORMAT:FORMATTED              ACCESS:SEQUENTIAL          
 ACTION:READ                


 OPENED gwt_transbase.adv
 FILE TYPE:ADV6      UNIT 1016   STATUS:OLD                 
 FORMAT:FORMATTED              ACCESS:SEQUENTIAL          
 ACTION:READ                


 OPENED gwt_transbase.dsp
 FILE TYPE:DSP6               UNIT 1017   STATUS:OLD                 
 FORMAT:FORMATTED              ACCESS:SEQUENTIAL          
 ACTION:READ                

 # File generated by Flopy version 3.9.3 on 06/29/2025 at 15:13:48.

 OPENED gwt_transbase.ssm
 FILE TYPE:SSM6      UNIT 1018   STATUS:OLD                 
 FORMAT:FORMATTED              ACCESS:SEQUENTIAL          
 ACTION:READ                


 OPENED gwt_transbase.oc
 FILE TYPE:OC6       UNIT 1019   STATUS:OLD                 
 FORMAT:FORMATTED              ACCESS:SEQUENTIAL          
 ACTION:READ                


 OPENED gwt_transbase.cnc
 FILE TYPE:CNC6               UNIT 1020   STATUS:OLD                 
 FORMAT:FORMATTED              ACCESS:SEQUENTIAL          
 ACTION:READ                

 # File generated by Flopy version 3.9.3 on 06/29/2025 at 15:13:48.

 OPENED transbase.gwfgwt
 FILE TYPE:GWF6-GWT6          UNIT 1021   STATUS:OLD                 
 FORMAT:FORMATTED              ACCESS:SEQUENTIAL          
 ACTION:READ                

 # File generated by Flopy version 3.9.3 on 06/29/2025 at 15:13:48.

 READING SIMULATION OPTIONS
    MAXIMUM NUMBER OF ERRORS THAT WILL BE STORED IS 1000
 END OF SIMULATION OPTIONS

 READING SIMULATION TIMING

 TDIS -- TEMPORAL DISCRETIZATION PACKAGE,
 VERSION 1 : 11/13/2014 - INPUT READ FROM MEMPATH: __INPUT__/SIM/TDIS                                
 PROCESSING TDIS OPTIONS
    SIMULATION TIME UNIT IS DAYS
 END OF TDIS OPTIONS
 PROCESSING TDIS DIMENSIONS
    4 STRESS PERIOD(S) IN SIMULATION
 END OF TDIS DIMENSIONS
 PROCESSING TDIS PERIODDATA


 STRESS PERIOD     LENGTH       TIME STEPS     MULTIPLIER FOR DELT
 ----------------------------------------------------------------------------
        1         1.000000          1                    1.000
        2         10.00000        120                    1.000
        3         10.00000        120                    1.000
        4         10.00000        120                    1.000
 END OF TDIS PERIODDATA
 END OF SIMULATION TIMING

 READING SIMULATION MODELS
    GWF6 model 1 will be created
    GWT6 model 2 will be created
 END OF SIMULATION MODELS

 READING SIMULATION EXCHANGES
    GWF6-GWT6 exchange 1 will be created to connect model 1 with model 2
 END OF SIMULATION EXCHANGES

 READING SOLUTIONGROUP

 Creating solution: SLN_1           

 OPENED gwf_transbase.ims
 FILE TYPE:IMS   UNIT 1024   STATUS:OLD                 
 FORMAT:FORMATTED              ACCESS:SEQUENTIAL          
 ACTION:READ                


 Creating solution: SLN_2           

 OPENED gwt_transbase.ims
 FILE TYPE:IMS   UNIT 1025   STATUS:OLD                 
 FORMAT:FORMATTED              ACCESS:SEQUENTIAL          
 ACTION:READ                

 END OF SOLUTIONGROUP

PROCESSING MODEL CONNECTIONS
END OF MODEL CONNECTIONS

 IMS -- ITERATIVE MODEL SOLUTION PACKAGE, VERSION 6, 4/28/2017
         INPUT READ FROM UNIT 1024
 # File generated by Flopy version 3.9.3 on 06/29/2025 at 15:13:48.

 PROCESSING IMS OPTIONS
 END OF IMS OPTIONS

 PROCESSING IMS NONLINEAR
 END OF IMS NONLINEAR DATA
 **UNDER-RELAXATION WILL BE USED***
 

 PROCESSING LINEAR DATA
 END OF LINEAR DATA
 ***IMS LINEAR SOLVER WILL BE USED***

 IMSLINEAR -- UNSTRUCTURED LINEAR SOLUTION PACKAGE, VERSION 8, 04/28/2017
 An asymmetric matrix will be solved

 OUTER ITERATION CONVERGENCE CRITERION    (DVCLOSE) =    0.100000E-01
 MAXIMUM NUMBER OF OUTER ITERATIONS        (MXITER) = 50
 SOLVER PRINTOUT INDEX                     (IPRIMS) = 1
 NONLINEAR ITERATION METHOD            (NONLINMETH) = 3
 LINEAR SOLUTION METHOD                   (LINMETH) = 1
 UNDER-RELAXATION WEIGHT REDUCTION FACTOR   (THETA) =    0.100000E+01
 UNDER-RELAXATION WEIGHT INCREASE INCREMENT (KAPPA) =    0.000000E+00
 UNDER-RELAXATION PREVIOUS HISTORY FACTOR   (GAMMA) =    0.100000E+01
 UNDER-RELAXATION MOMENTUM TERM         (AMOMENTUM) =    0.000000E+00

       SOLUTION BY THE BICONJUGATE-GRADIENT STABILIZED METHOD
 ------------------------------------------------------------------
 MAXIMUM OF 50 CALLS OF SOLUTION ROUTINE
 MAXIMUM OF 100 INTERNAL ITERATIONS PER CALL TO SOLUTION ROUTINE
 LINEAR ACCELERATION METHOD            = BCGS      
 MATRIX PRECONDITIONING TYPE           = INCOMPLETE LU       
 MATRIX SCALING APPROACH               = NO SCALING          
 MATRIX REORDERING APPROACH            = ORIGINAL ORDERING        
 NUMBER OF ORTHOGONALIZATIONS          = 0
 HEAD CHANGE CRITERION FOR CLOSURE     =    0.10000E-01
 RESIDUAL CHANGE CRITERION FOR CLOSURE =    0.10000E+00
 RESIDUAL CONVERGENCE OPTION           = 0
 RESIDUAL CONVERGENCE NORM             = INFINITY NORM   
 RELAXATION FACTOR                     =    0.00000E+00




 IMS -- ITERATIVE MODEL SOLUTION PACKAGE, VERSION 6, 4/28/2017
         INPUT READ FROM UNIT 1025
 # File generated by Flopy version 3.9.3 on 06/29/2025 at 15:13:48.

 PROCESSING IMS OPTIONS
 END OF IMS OPTIONS

 PROCESSING IMS NONLINEAR
 END OF IMS NONLINEAR DATA
 **UNDER-RELAXATION WILL BE USED***
 

 PROCESSING LINEAR DATA
 END OF LINEAR DATA
 ***IMS LINEAR SOLVER WILL BE USED***

 IMSLINEAR -- UNSTRUCTURED LINEAR SOLUTION PACKAGE, VERSION 8, 04/28/2017
 An asymmetric matrix will be solved

 OUTER ITERATION CONVERGENCE CRITERION    (DVCLOSE) =    0.100000E-01
 MAXIMUM NUMBER OF OUTER ITERATIONS        (MXITER) = 50
 SOLVER PRINTOUT INDEX                     (IPRIMS) = 1
 NONLINEAR ITERATION METHOD            (NONLINMETH) = 3
 LINEAR SOLUTION METHOD                   (LINMETH) = 1
 UNDER-RELAXATION WEIGHT REDUCTION FACTOR   (THETA) =    0.100000E+01
 UNDER-RELAXATION WEIGHT INCREASE INCREMENT (KAPPA) =    0.000000E+00
 UNDER-RELAXATION PREVIOUS HISTORY FACTOR   (GAMMA) =    0.100000E+01
 UNDER-RELAXATION MOMENTUM TERM         (AMOMENTUM) =    0.000000E+00

       SOLUTION BY THE BICONJUGATE-GRADIENT STABILIZED METHOD
 ------------------------------------------------------------------
 MAXIMUM OF 50 CALLS OF SOLUTION ROUTINE
 MAXIMUM OF 100 INTERNAL ITERATIONS PER CALL TO SOLUTION ROUTINE
 LINEAR ACCELERATION METHOD            = BCGS      
 MATRIX PRECONDITIONING TYPE           = INCOMPLETE LU       
 MATRIX SCALING APPROACH               = NO SCALING          
 MATRIX REORDERING APPROACH            = ORIGINAL ORDERING        
 NUMBER OF ORTHOGONALIZATIONS          = 0
 HEAD CHANGE CRITERION FOR CLOSURE     =    0.10000E-01
 RESIDUAL CHANGE CRITERION FOR CLOSURE =    0.10000E+00
 RESIDUAL CONVERGENCE OPTION           = 0
 RESIDUAL CONVERGENCE NORM             = INFINITY NORM   
 RELAXATION FACTOR                     =    0.00000E+00



 
    Solving:  Stress period:     1    Time step:     1
 
1
 STRESS PERIOD NO. 1, LENGTH =   1.000000    
 ------------------------------------------
 NUMBER OF TIME STEPS = 1
 MULTIPLIER FOR DELT =     1.000
 INITIAL TIME STEP SIZE =   1.000000    

 SLN_1 OUTER ITERATION SUMMARY
 ----------------------------------------------------------------------------------------------------------
                                OUTER      INNER                    STEP   MAXIMUM CHANGE MODEL-(CELLID) OR
 OUTER ITERATION STEP       ITERATION  ITERATION  MAXIMUM CHANGE SUCCESS             MODEL-PACKAGE-(NUMBER)
 ----------------------------------------------------------------------------------------------------------
 Model                              1          1       0.0000000       *                                   
 ----------------------------------------------------------------------------------------------------------


 1 CALLS TO NUMERICAL SOLUTION IN TIME STEP 1 STRESS PERIOD 1
 1 TOTAL ITERATIONS

 SLN_2 OUTER ITERATION SUMMARY
 ----------------------------------------------------------------------------------------------------------
                                OUTER      INNER                    STEP   MAXIMUM CHANGE MODEL-(CELLID) OR
 OUTER ITERATION STEP       ITERATION  ITERATION  MAXIMUM CHANGE SUCCESS             MODEL-PACKAGE-(NUMBER)
 ----------------------------------------------------------------------------------------------------------
 Model                              1          0       0.0000000       *                                   
 ----------------------------------------------------------------------------------------------------------


 1 CALLS TO NUMERICAL SOLUTION IN TIME STEP 1 STRESS PERIOD 1
 0 TOTAL ITERATIONS
 
    Solving:  Stress period:     2    Time step:     1
 
1
 STRESS PERIOD NO. 2, LENGTH =   10.00000    
 ------------------------------------------
 NUMBER OF TIME STEPS = 120
 MULTIPLIER FOR DELT =     1.000
 INITIAL TIME STEP SIZE =  0.8333333E-01

 SLN_1 OUTER ITERATION SUMMARY
 ----------------------------------------------------------------------------------------------------------
                                OUTER      INNER                    STEP   MAXIMUM CHANGE MODEL-(CELLID) OR
 OUTER ITERATION STEP       ITERATION  ITERATION  MAXIMUM CHANGE SUCCESS             MODEL-PACKAGE-(NUMBER)
 ----------------------------------------------------------------------------------------------------------
 Model                              1          1 -2.99443257E-06       *                      1_GWF-(1,9,5)
 ----------------------------------------------------------------------------------------------------------


 1 CALLS TO NUMERICAL SOLUTION IN TIME STEP 1 STRESS PERIOD 2
 1 TOTAL ITERATIONS

 SLN_2 OUTER ITERATION SUMMARY
 ----------------------------------------------------------------------------------------------------------
                                OUTER      INNER                    STEP   MAXIMUM CHANGE MODEL-(CELLID) OR
 OUTER ITERATION STEP       ITERATION  ITERATION  MAXIMUM CHANGE SUCCESS             MODEL-PACKAGE-(NUMBER)
 ----------------------------------------------------------------------------------------------------------
 Model                              1          1 -3.77142813E-08       *                      2_GWT-(1,9,5)
 ----------------------------------------------------------------------------------------------------------


 1 CALLS TO NUMERICAL SOLUTION IN TIME STEP 1 STRESS PERIOD 2
 1 TOTAL ITERATIONS
 
    Solving:  Stress period:     2    Time step:     2
 

 SLN_1 OUTER ITERATION SUMMARY
 ----------------------------------------------------------------------------------------------------------
                                OUTER      INNER                    STEP   MAXIMUM CHANGE MODEL-(CELLID) OR
 OUTER ITERATION STEP       ITERATION  ITERATION  MAXIMUM CHANGE SUCCESS             MODEL-PACKAGE-(NUMBER)
 ----------------------------------------------------------------------------------------------------------
 Model                              1          1 -2.22435658E-05       *                      1_GWF-(1,9,5)
 ----------------------------------------------------------------------------------------------------------


 1 CALLS TO NUMERICAL SOLUTION IN TIME STEP 2 STRESS PERIOD 2
 1 TOTAL ITERATIONS

 SLN_2 OUTER ITERATION SUMMARY
 ----------------------------------------------------------------------------------------------------------
                                OUTER      INNER                    STEP   MAXIMUM CHANGE MODEL-(CELLID) OR
 OUTER ITERATION STEP       ITERATION  ITERATION  MAXIMUM CHANGE SUCCESS             MODEL-PACKAGE-(NUMBER)
 ----------------------------------------------------------------------------------------------------------
 Model                              1          1 -2.80220033E-07       *                      2_GWT-(1,9,5)
 ----------------------------------------------------------------------------------------------------------


 1 CALLS TO NUMERICAL SOLUTION IN TIME STEP 2 STRESS PERIOD 2
 1 TOTAL ITERATIONS
 
    Solving:  Stress period:     2    Time step:     3
 

 SLN_1 OUTER ITERATION SUMMARY
 ----------------------------------------------------------------------------------------------------------
                                OUTER      INNER                    STEP   MAXIMUM CHANGE MODEL-(CELLID) OR
 OUTER ITERATION STEP       ITERATION  ITERATION  MAXIMUM CHANGE SUCCESS             MODEL-PACKAGE-(NUMBER)
 ----------------------------------------------------------------------------------------------------------
 Model                              1          1 -9.56213473E-05       *                      1_GWF-(1,9,5)
 ----------------------------------------------------------------------------------------------------------


 1 CALLS TO NUMERICAL SOLUTION IN TIME STEP 3 STRESS PERIOD 2
 1 TOTAL ITERATIONS

 SLN_2 OUTER ITERATION SUMMARY
 ----------------------------------------------------------------------------------------------------------
                                OUTER      INNER                    STEP   MAXIMUM CHANGE MODEL-(CELLID) OR
 OUTER ITERATION STEP       ITERATION  ITERATION  MAXIMUM CHANGE SUCCESS             MODEL-PACKAGE-(NUMBER)
 ----------------------------------------------------------------------------------------------------------
 Model                              1          1 -1.20489086E-06       *                      2_GWT-(1,9,5)
 ----------------------------------------------------------------------------------------------------------


 1 CALLS TO NUMERICAL SOLUTION IN TIME STEP 3 STRESS PERIOD 2
 1 TOTAL ITERATIONS
 
    Solving:  Stress period:     2    Time step:     4
 

 SLN_1 OUTER ITERATION SUMMARY
 ----------------------------------------------------------------------------------------------------------
                                OUTER      INNER                    STEP   MAXIMUM CHANGE MODEL-(CELLID) OR
 OUTER ITERATION STEP       ITERATION  ITERATION  MAXIMUM CHANGE SUCCESS             MODEL-PACKAGE-(NUMBER)
 ----------------------------------------------------------------------------------------------------------
 Model                              1          1 -4.11132346E-04       *                      1_GWF-(1,9,5)
 ----------------------------------------------------------------------------------------------------------


 1 CALLS TO NUMERICAL SOLUTION IN TIME STEP 4 STRESS PERIOD 2
 1 TOTAL ITERATIONS

 SLN_2 OUTER ITERATION SUMMARY
 ----------------------------------------------------------------------------------------------------------
                                OUTER      INNER                    STEP   MAXIMUM CHANGE MODEL-(CELLID) OR
 OUTER ITERATION STEP       ITERATION  ITERATION  MAXIMUM CHANGE SUCCESS             MODEL-PACKAGE-(NUMBER)
 ----------------------------------------------------------------------------------------------------------
 Model                              1          1 -5.18073649E-06       *                      2_GWT-(1,9,5)
 ----------------------------------------------------------------------------------------------------------


 1 CALLS TO NUMERICAL SOLUTION IN TIME STEP 4 STRESS PERIOD 2
 1 TOTAL ITERATIONS
 
    Solving:  Stress period:     2    Time step:     5
 

 SLN_1 OUTER ITERATION SUMMARY
 ----------------------------------------------------------------------------------------------------------
                                OUTER      INNER                    STEP   MAXIMUM CHANGE MODEL-(CELLID) OR
 OUTER ITERATION STEP       ITERATION  ITERATION  MAXIMUM CHANGE SUCCESS             MODEL-PACKAGE-(NUMBER)
 ----------------------------------------------------------------------------------------------------------
 Model                              1          1 -1.76777175E-03       *                      1_GWF-(1,9,5)
 ----------------------------------------------------------------------------------------------------------


 1 CALLS TO NUMERICAL SOLUTION IN TIME STEP 5 STRESS PERIOD 2
 1 TOTAL ITERATIONS

 SLN_2 OUTER ITERATION SUMMARY
 ----------------------------------------------------------------------------------------------------------
                                OUTER      INNER                    STEP   MAXIMUM CHANGE MODEL-(CELLID) OR
 OUTER ITERATION STEP       ITERATION  ITERATION  MAXIMUM CHANGE SUCCESS             MODEL-PACKAGE-(NUMBER)
 ----------------------------------------------------------------------------------------------------------
 Model                              1          1 -2.22748565E-05       *                      2_GWT-(1,9,5)
 ----------------------------------------------------------------------------------------------------------


 1 CALLS TO NUMERICAL SOLUTION IN TIME STEP 5 STRESS PERIOD 2
 1 TOTAL ITERATIONS
 
    Solving:  Stress period:     2    Time step:     6
 

 SLN_1 OUTER ITERATION SUMMARY
 ----------------------------------------------------------------------------------------------------------
                                OUTER      INNER                    STEP   MAXIMUM CHANGE MODEL-(CELLID) OR
 OUTER ITERATION STEP       ITERATION  ITERATION  MAXIMUM CHANGE SUCCESS             MODEL-PACKAGE-(NUMBER)
 ----------------------------------------------------------------------------------------------------------
 Model                              1          1 -7.60107258E-03       *                      1_GWF-(1,9,5)
 ----------------------------------------------------------------------------------------------------------


 1 CALLS TO NUMERICAL SOLUTION IN TIME STEP 6 STRESS PERIOD 2
 1 TOTAL ITERATIONS

 SLN_2 OUTER ITERATION SUMMARY
 ----------------------------------------------------------------------------------------------------------
                                OUTER      INNER                    STEP   MAXIMUM CHANGE MODEL-(CELLID) OR
 OUTER ITERATION STEP       ITERATION  ITERATION  MAXIMUM CHANGE SUCCESS             MODEL-PACKAGE-(NUMBER)
 ----------------------------------------------------------------------------------------------------------
 Model                              1          1 -9.57526301E-05       *                      2_GWT-(1,9,5)
 ----------------------------------------------------------------------------------------------------------


 1 CALLS TO NUMERICAL SOLUTION IN TIME STEP 6 STRESS PERIOD 2
 1 TOTAL ITERATIONS
 
    Solving:  Stress period:     2    Time step:     7
 

 SLN_1 OUTER ITERATION SUMMARY
 ----------------------------------------------------------------------------------------------------------
                                OUTER      INNER                    STEP   MAXIMUM CHANGE MODEL-(CELLID) OR
 OUTER ITERATION STEP       ITERATION  ITERATION  MAXIMUM CHANGE SUCCESS             MODEL-PACKAGE-(NUMBER)
 ----------------------------------------------------------------------------------------------------------
 Model                              1          2 -3.26832050E-02                              1_GWF-(1,9,5)
 Model                              2          2 -1.43883232E-02                              1_GWF-(1,9,5)
 Model                              3          2 -2.07191835E-02                              1_GWF-(1,9,5)
 Model                              4          2 -2.98356276E-02                              1_GWF-(1,9,5)
 Model                              5          2 -4.29633108E-02                              1_GWF-(1,9,5)
 Model                              6          2 -6.18671822E-02                              1_GWF-(1,9,5)
 Model                              7          2 -8.90887727E-02                              1_GWF-(1,9,5)
 Model                              8          2     -0.12828790                              1_GWF-(1,9,5)
 Model                              9          2     -0.18473470                              1_GWF-(1,9,5)
 Model                             10          2     -0.26601824                              1_GWF-(1,9,5)
 Model                             11          2     -0.38306683                              1_GWF-(1,9,5)
 Model                             12          2     -0.55161740                              1_GWF-(1,9,5)
 Model                             13          2     -0.79433147                              1_GWF-(1,9,5)
 Model                             14          2      -1.1438423                              1_GWF-(1,9,5)
 Model                             15          2      -1.6471434                              1_GWF-(1,9,5)
 Model                             16          2      -2.3719080                              1_GWF-(1,9,5)
 Model                             17          2      -3.4155923                              1_GWF-(1,9,5)
 Model                             18          2      -4.9185456                              1_GWF-(1,9,5)
 Model                             19          4      -4592.3956                              1_GWF-(1,9,5)
 Model                             20          4       39476.017                              1_GWF-(3,9,5)
 Model                             21          5      -53683.259                              1_GWF-(3,9,5)
 Model                             22          6       85214.020                              1_GWF-(3,9,5)
 Model                             23          9      -129116.96                              1_GWF-(2,9,5)
 Model                             24         12       517387.32                              1_GWF-(2,9,2)
 Model                             25         12      -526731.59                              1_GWF-(2,9,2)
 Model                             26         19       3769924.6                             1_GWF-(2,15,1)
 Model                             27         12      -3770907.4                             1_GWF-(2,15,1)
 Model                             28         21       4925826.0                             1_GWF-(2,3,10)
 Model                             29         12      -4926554.5                             1_GWF-(2,3,10)
 Model                             30         21       4744368.8                             1_GWF-(2,2,10)
 Model                             31         12      -4745210.2                             1_GWF-(2,2,10)
 Model                             32         22       4459509.1                             1_GWF-(2,1,10)
 Model                             33         12      -4460609.3                             1_GWF-(2,1,10)
 Model                             34         21       4007447.3                             1_GWF-(2,1,10)
 Model                             35         12      -4043151.7                              1_GWF-(1,9,5)
 Model                             36         22       3287535.2                             1_GWF-(2,1,10)
 Model                             37         11      -3447903.4                              1_GWF-(1,9,5)
 Model                             38         23       2141067.2                             1_GWF-(2,1,10)
 Model                             39         12      -2807050.7                              1_GWF-(1,9,5)
 Model                             40         23      -930098.72                              1_GWF-(2,9,4)
 Model                             41         21      -349854.27                             1_GWF-(2,1,10)
 Model                             42         20       1090910.7                             1_GWF-(2,1,10)
 Model                             43         14      -3054061.0                              1_GWF-(1,9,5)
 Model                             44         23      -2363637.9                             1_GWF-(2,12,1)
 Model                             45         23       987419.71                              1_GWF-(1,9,5)
 Model                             46         22       910006.43                              1_GWF-(1,9,5)
 Model                             47         22       838662.34                              1_GWF-(1,9,5)
 Model                             48         22       772911.62                              1_GWF-(1,9,5)
 Model                             49         20      -463397.10                             1_GWF-(2,1,10)
 Model                             50         23       1186488.8                             1_GWF-(2,1,10)
 ----------------------------------------------------------------------------------------------------------


 Solution 1 did not converge for stress period 2 and time step 7

 SLN_2 OUTER ITERATION SUMMARY
 ----------------------------------------------------------------------------------------------------------
                                OUTER      INNER                    STEP   MAXIMUM CHANGE MODEL-(CELLID) OR
 OUTER ITERATION STEP       ITERATION  ITERATION  MAXIMUM CHANGE SUCCESS             MODEL-PACKAGE-(NUMBER)
 ----------------------------------------------------------------------------------------------------------
 Model                              1          5       2.9753422                              2_GWT-(1,8,2)
 Model                              2          3      -2.5526036                              2_GWT-(1,1,1)
 Model                              3          1  6.18189944E-11       *                      2_GWT-(1,1,1)
 ----------------------------------------------------------------------------------------------------------


 3 CALLS TO NUMERICAL SOLUTION IN TIME STEP 7 STRESS PERIOD 2
 9 TOTAL ITERATIONS
 
    Solving:  Stress period:     2    Time step:     8
 

 SLN_1 OUTER ITERATION SUMMARY
 ----------------------------------------------------------------------------------------------------------
                                OUTER      INNER                    STEP   MAXIMUM CHANGE MODEL-(CELLID) OR
 OUTER ITERATION STEP       ITERATION  ITERATION  MAXIMUM CHANGE SUCCESS             MODEL-PACKAGE-(NUMBER)
 ----------------------------------------------------------------------------------------------------------
 Model                              1         14      -3674346.9                              1_GWF-(1,9,5)
 Model                              2         14      -464073.67                              1_GWF-(2,9,1)
 Model                              3         18       3018201.4                              1_GWF-(1,9,5)
 Model                              4         13      -1220380.1                              1_GWF-(1,9,5)
 Model                              5         13      -97900.450                              1_GWF-(2,9,1)
 Model                              6         14      -21918.887                              1_GWF-(2,9,9)
 Model                              7         14       21918.886                              1_GWF-(2,9,9)
 Model                              8         14      -21918.886                              1_GWF-(2,9,9)
 Model                              9         14       21918.886                              1_GWF-(2,9,9)
 Model                             10         14      -21918.886                              1_GWF-(2,9,9)
 Model                             11         14       21918.886                              1_GWF-(2,9,9)
 Model                             12         14      -21918.886                              1_GWF-(2,9,9)
 Model                             13         14       21918.886                              1_GWF-(2,9,9)
 Model                             14         14      -21918.886                              1_GWF-(2,9,9)
 Model                             15         14       21918.886                              1_GWF-(2,9,9)
 Model                             16         14      -21918.886                              1_GWF-(2,9,9)
 Model                             17         14       21918.886                              1_GWF-(2,9,9)
 Model                             18         14      -21918.886                              1_GWF-(2,9,9)
 Model                             19         14       21918.886                              1_GWF-(2,9,9)
 Model                             20         14      -21918.886                              1_GWF-(2,9,9)
 Model                             21         14       21918.886                              1_GWF-(2,9,9)
 Model                             22         14      -21918.886                              1_GWF-(2,9,9)
 Model                             23         14       21918.886                              1_GWF-(2,9,9)
 Model                             24         14      -21918.886                              1_GWF-(2,9,9)
 Model                             25         14       21918.886                              1_GWF-(2,9,9)
 Model                             26         14      -21918.886                              1_GWF-(2,9,9)
 Model                             27         14       21918.886                              1_GWF-(2,9,9)
 Model                             28         14      -21918.886                              1_GWF-(2,9,9)
 Model                             29         14       21918.886                              1_GWF-(2,9,9)
 Model                             30         14      -21918.886                              1_GWF-(2,9,9)
 Model                             31         14       21918.886                              1_GWF-(2,9,9)
 Model                             32         14      -21918.886                              1_GWF-(2,9,9)
 Model                             33         14       21918.886                              1_GWF-(2,9,9)
 Model                             34         14      -21918.886                              1_GWF-(2,9,9)
 Model                             35         14       21918.886                              1_GWF-(2,9,9)
 Model                             36         14      -21918.886                              1_GWF-(2,9,9)
 Model                             37         14       21918.886                              1_GWF-(2,9,9)
 Model                             38         14      -21918.886                              1_GWF-(2,9,9)
 Model                             39         14       21918.886                              1_GWF-(2,9,9)
 Model                             40         14      -21918.886                              1_GWF-(2,9,9)
 Model                             41         14       21918.886                              1_GWF-(2,9,9)
 Model                             42         14      -21918.886                              1_GWF-(2,9,9)
 Model                             43         14       21918.886                              1_GWF-(2,9,9)
 Model                             44         14      -21918.886                              1_GWF-(2,9,9)
 Model                             45         14       21918.886                              1_GWF-(2,9,9)
 Model                             46         14      -21918.886                              1_GWF-(2,9,9)
 Model                             47         14       21918.886                              1_GWF-(2,9,9)
 Model                             48         14      -21918.886                              1_GWF-(2,9,9)
 Model                             49         14       21918.886                              1_GWF-(2,9,9)
 Model                             50         14      -21918.886                              1_GWF-(2,9,9)
 ----------------------------------------------------------------------------------------------------------


 Solution 1 did not converge for stress period 2 and time step 8

 SLN_2 OUTER ITERATION SUMMARY
 ----------------------------------------------------------------------------------------------------------
                                OUTER      INNER                    STEP   MAXIMUM CHANGE MODEL-(CELLID) OR
 OUTER ITERATION STEP       ITERATION  ITERATION  MAXIMUM CHANGE SUCCESS             MODEL-PACKAGE-(NUMBER)
 ----------------------------------------------------------------------------------------------------------
 Model                              1          4      -3.7863327                              2_GWT-(1,1,1)
 Model                              2          2 -1.65134295E-04       *                      2_GWT-(1,7,5)
 ----------------------------------------------------------------------------------------------------------


 2 CALLS TO NUMERICAL SOLUTION IN TIME STEP 8 STRESS PERIOD 2
 6 TOTAL ITERATIONS
 
    Solving:  Stress period:     2    Time step:     9
 

 SLN_1 OUTER ITERATION SUMMARY
 ----------------------------------------------------------------------------------------------------------
                                OUTER      INNER                    STEP   MAXIMUM CHANGE MODEL-(CELLID) OR
 OUTER ITERATION STEP       ITERATION  ITERATION  MAXIMUM CHANGE SUCCESS             MODEL-PACKAGE-(NUMBER)
 ----------------------------------------------------------------------------------------------------------
 Model                              1         14      -999691.15                             1_GWF-(2,10,1)
 Model                              2         21       2354749.2                              1_GWF-(1,9,5)
 Model                              3         15      -1023141.0                              1_GWF-(1,9,5)
 Model                              4         18       2076233.8                              1_GWF-(1,9,5)
 Model                              5         13      -885903.82                              1_GWF-(1,9,5)
 Model                              6         18       1463234.6                              1_GWF-(1,9,5)
 Model                              7         13      -724882.33                              1_GWF-(1,9,5)
 Model                              8         16       205791.84                             1_GWF-(2,15,5)
 Model                              9         15      -233762.08                             1_GWF-(2,15,5)
 Model                             10         16       433454.38                             1_GWF-(2,15,4)
 Model                             11         15      -428105.10                             1_GWF-(2,15,4)
 Model                             12         16       418989.07                             1_GWF-(2,15,4)
 Model                             13         15      -418989.07                             1_GWF-(2,15,4)
 Model                             14         16       418989.07                             1_GWF-(2,15,4)
 Model                             15         15      -418989.07                             1_GWF-(2,15,4)
 Model                             16         16       418989.07                             1_GWF-(2,15,4)
 Model                             17         15      -418989.07                             1_GWF-(2,15,4)
 Model                             18         16       418989.07                             1_GWF-(2,15,4)
 Model                             19         15      -418989.07                             1_GWF-(2,15,4)
 Model                             20         16       418989.07                             1_GWF-(2,15,4)
 Model                             21         15      -418989.07                             1_GWF-(2,15,4)
 Model                             22         16       418989.07                             1_GWF-(2,15,4)
 Model                             23         15      -418989.07                             1_GWF-(2,15,4)
 Model                             24         16       418989.07                             1_GWF-(2,15,4)
 Model                             25         15      -418989.07                             1_GWF-(2,15,4)
 Model                             26         16       418989.07                             1_GWF-(2,15,4)
 Model                             27         15      -418989.07                             1_GWF-(2,15,4)
 Model                             28         16       418989.07                             1_GWF-(2,15,4)
 Model                             29         15      -418989.07                             1_GWF-(2,15,4)
 Model                             30         16       418989.07                             1_GWF-(2,15,4)
 Model                             31         15      -418989.07                             1_GWF-(2,15,4)
 Model                             32         16       418989.07                             1_GWF-(2,15,4)
 Model                             33         15      -418989.07                             1_GWF-(2,15,4)
 Model                             34         16       418989.07                             1_GWF-(2,15,4)
 Model                             35         15      -418989.07                             1_GWF-(2,15,4)
 Model                             36         16       418989.07                             1_GWF-(2,15,4)
 Model                             37         15      -418989.07                             1_GWF-(2,15,4)
 Model                             38         16       418989.07                             1_GWF-(2,15,4)
 Model                             39         15      -418989.07                             1_GWF-(2,15,4)
 Model                             40         16       418989.07                             1_GWF-(2,15,4)
 Model                             41         15      -418989.07                             1_GWF-(2,15,4)
 Model                             42         16       418989.07                             1_GWF-(2,15,4)
 Model                             43         15      -418989.07                             1_GWF-(2,15,4)
 Model                             44         16       418989.07                             1_GWF-(2,15,4)
 Model                             45         15      -418989.07                             1_GWF-(2,15,4)
 Model                             46         16       418989.07                             1_GWF-(2,15,4)
 Model                             47         15      -418989.07                             1_GWF-(2,15,4)
 Model                             48         16       418989.07                             1_GWF-(2,15,4)
 Model                             49         15      -418989.07                             1_GWF-(2,15,4)
 Model                             50         16       418989.07                             1_GWF-(2,15,4)
 ----------------------------------------------------------------------------------------------------------


 Solution 1 did not converge for stress period 2 and time step 9

 SLN_2 OUTER ITERATION SUMMARY
 ----------------------------------------------------------------------------------------------------------
                                OUTER      INNER                    STEP   MAXIMUM CHANGE MODEL-(CELLID) OR
 OUTER ITERATION STEP       ITERATION  ITERATION  MAXIMUM CHANGE SUCCESS             MODEL-PACKAGE-(NUMBER)
 ----------------------------------------------------------------------------------------------------------
 Model                              1          4      -3.1197031                              2_GWT-(1,1,1)
 Model                              2          1 -3.12624829E-10       *                     2_GWT-(1,10,4)
 ----------------------------------------------------------------------------------------------------------


 2 CALLS TO NUMERICAL SOLUTION IN TIME STEP 9 STRESS PERIOD 2
 5 TOTAL ITERATIONS
 
    Solving:  Stress period:     2    Time step:    10
 

 SLN_1 OUTER ITERATION SUMMARY
 ----------------------------------------------------------------------------------------------------------
                                OUTER      INNER                    STEP   MAXIMUM CHANGE MODEL-(CELLID) OR
 OUTER ITERATION STEP       ITERATION  ITERATION  MAXIMUM CHANGE SUCCESS             MODEL-PACKAGE-(NUMBER)
 ----------------------------------------------------------------------------------------------------------
 Model                              1         14      -265831.67                             1_GWF-(2,15,4)
 Model                              2         17       1094839.8                              1_GWF-(1,9,5)
 Model                              3         12      -502060.63                              1_GWF-(1,9,5)
 Model                              4         15       115295.22                              1_GWF-(2,5,1)
 Model                              5         13      -105637.11                              1_GWF-(2,5,1)
 Model                              6         14       103615.94                              1_GWF-(2,5,1)
 Model                              7         13      -103615.94                              1_GWF-(2,5,1)
 Model                              8         14       103615.94                              1_GWF-(2,5,1)
 Model                              9         13      -103615.94                              1_GWF-(2,5,1)
 Model                             10         14       103615.94                              1_GWF-(2,5,1)
 Model                             11         13      -103615.94                              1_GWF-(2,5,1)
 Model                             12         14       103615.94                              1_GWF-(2,5,1)
 Model                             13         13      -103615.94                              1_GWF-(2,5,1)
 Model                             14         14       103615.94                              1_GWF-(2,5,1)
 Model                             15         13      -103615.94                              1_GWF-(2,5,1)
 Model                             16         14       103615.94                              1_GWF-(2,5,1)
 Model                             17         13      -103615.94                              1_GWF-(2,5,1)
 Model                             18         14       103615.94                              1_GWF-(2,5,1)
 Model                             19         13      -103615.94                              1_GWF-(2,5,1)
 Model                             20         14       103615.94                              1_GWF-(2,5,1)
 Model                             21         13      -103615.94                              1_GWF-(2,5,1)
 Model                             22         14       103615.94                              1_GWF-(2,5,1)
 Model                             23         13      -103615.94                              1_GWF-(2,5,1)
 Model                             24         14       103615.94                              1_GWF-(2,5,1)
 Model                             25         13      -103615.94                              1_GWF-(2,5,1)
 Model                             26         14       103615.94                              1_GWF-(2,5,1)
 Model                             27         13      -103615.94                              1_GWF-(2,5,1)
 Model                             28         14       103615.94                              1_GWF-(2,5,1)
 Model                             29         13      -103615.94                              1_GWF-(2,5,1)
 Model                             30         14       103615.94                              1_GWF-(2,5,1)
 Model                             31         13      -103615.94                              1_GWF-(2,5,1)
 Model                             32         14       103615.94                              1_GWF-(2,5,1)
 Model                             33         13      -103615.94                              1_GWF-(2,5,1)
 Model                             34         14       103615.94                              1_GWF-(2,5,1)
 Model                             35         13      -103615.94                              1_GWF-(2,5,1)
 Model                             36         14       103615.94                              1_GWF-(2,5,1)
 Model                             37         13      -103615.94                              1_GWF-(2,5,1)
 Model                             38         14       103615.94                              1_GWF-(2,5,1)
 Model                             39         13      -103615.94                              1_GWF-(2,5,1)
 Model                             40         14       103615.94                              1_GWF-(2,5,1)
 Model                             41         13      -103615.94                              1_GWF-(2,5,1)
 Model                             42         14       103615.94                              1_GWF-(2,5,1)
 Model                             43         13      -103615.94                              1_GWF-(2,5,1)
 Model                             44         14       103615.94                              1_GWF-(2,5,1)
 Model                             45         13      -103615.94                              1_GWF-(2,5,1)
 Model                             46         14       103615.94                              1_GWF-(2,5,1)
 Model                             47         13      -103615.94                              1_GWF-(2,5,1)
 Model                             48         14       103615.94                              1_GWF-(2,5,1)
 Model                             49         13      -103615.94                              1_GWF-(2,5,1)
 Model                             50         14       103615.94                              1_GWF-(2,5,1)
 ----------------------------------------------------------------------------------------------------------


 Solution 1 did not converge for stress period 2 and time step 10

 SLN_2 OUTER ITERATION SUMMARY
 ----------------------------------------------------------------------------------------------------------
                                OUTER      INNER                    STEP   MAXIMUM CHANGE MODEL-(CELLID) OR
 OUTER ITERATION STEP       ITERATION  ITERATION  MAXIMUM CHANGE SUCCESS             MODEL-PACKAGE-(NUMBER)
 ----------------------------------------------------------------------------------------------------------
 Model                              1          4      -2.4872803                              2_GWT-(1,1,1)
 Model                              2          1  2.25323288E-10       *                      2_GWT-(2,9,5)
 ----------------------------------------------------------------------------------------------------------


 2 CALLS TO NUMERICAL SOLUTION IN TIME STEP 10 STRESS PERIOD 2
 5 TOTAL ITERATIONS
 
    Solving:  Stress period:     2    Time step:    11
 

 SLN_1 OUTER ITERATION SUMMARY
 ----------------------------------------------------------------------------------------------------------
                                OUTER      INNER                    STEP   MAXIMUM CHANGE MODEL-(CELLID) OR
 OUTER ITERATION STEP       ITERATION  ITERATION  MAXIMUM CHANGE SUCCESS             MODEL-PACKAGE-(NUMBER)
 ----------------------------------------------------------------------------------------------------------
 Model                              1         13      -188809.84                             1_GWF-(2,13,3)
 Model                              2         17       978742.50                              1_GWF-(1,9,5)
 Model                              3         13      -495631.84                              1_GWF-(1,9,5)
 Model                              4         16       193854.87                            1_GWF-(2,10,10)
 Model                              5         14      -198338.25                            1_GWF-(2,10,10)
 Model                              6         15       235442.84                            1_GWF-(2,10,10)
 Model                              7         14      -237013.22                            1_GWF-(2,10,10)
 Model                              8         15       246562.88                            1_GWF-(2,10,10)
 Model                              9         14      -246850.06                            1_GWF-(2,10,10)
 Model                             10         15       246850.06                            1_GWF-(2,10,10)
 Model                             11         14      -246850.06                            1_GWF-(2,10,10)
 Model                             12         15       246850.06                            1_GWF-(2,10,10)
 Model                             13         14      -246850.06                            1_GWF-(2,10,10)
 Model                             14         15       246850.06                            1_GWF-(2,10,10)
 Model                             15         14      -246850.06                            1_GWF-(2,10,10)
 Model                             16         15       246850.06                            1_GWF-(2,10,10)
 Model                             17         14      -246850.06                            1_GWF-(2,10,10)
 Model                             18         15       246850.06                            1_GWF-(2,10,10)
 Model                             19         14      -246850.06                            1_GWF-(2,10,10)
 Model                             20         15       246850.06                            1_GWF-(2,10,10)
 Model                             21         14      -246850.06                            1_GWF-(2,10,10)
 Model                             22         15       246850.06                            1_GWF-(2,10,10)
 Model                             23         14      -246850.06                            1_GWF-(2,10,10)
 Model                             24         15       246850.06                            1_GWF-(2,10,10)
 Model                             25         14      -246850.06                            1_GWF-(2,10,10)
 Model                             26         15       246850.06                            1_GWF-(2,10,10)
 Model                             27         14      -246850.06                            1_GWF-(2,10,10)
 Model                             28         15       246850.06                            1_GWF-(2,10,10)
 Model                             29         14      -246850.06                            1_GWF-(2,10,10)
 Model                             30         15       246850.06                            1_GWF-(2,10,10)
 Model                             31         14      -246850.06                            1_GWF-(2,10,10)
 Model                             32         15       246850.06                            1_GWF-(2,10,10)
 Model                             33         14      -246850.06                            1_GWF-(2,10,10)
 Model                             34         15       246850.06                            1_GWF-(2,10,10)
 Model                             35         14      -246850.06                            1_GWF-(2,10,10)
 Model                             36         15       246850.06                            1_GWF-(2,10,10)
 Model                             37         14      -246850.06                            1_GWF-(2,10,10)
 Model                             38         15       246850.06                            1_GWF-(2,10,10)
 Model                             39         14      -246850.06                            1_GWF-(2,10,10)
 Model                             40         15       246850.06                            1_GWF-(2,10,10)
 Model                             41         14      -246850.06                            1_GWF-(2,10,10)
 Model                             42         15       246850.06                            1_GWF-(2,10,10)
 Model                             43         14      -246850.06                            1_GWF-(2,10,10)
 Model                             44         15       246850.06                            1_GWF-(2,10,10)
 Model                             45         14      -246850.06                            1_GWF-(2,10,10)
 Model                             46         15       246850.06                            1_GWF-(2,10,10)
 Model                             47         14      -246850.06                            1_GWF-(2,10,10)
 Model                             48         15       246850.06                            1_GWF-(2,10,10)
 Model                             49         14      -246850.06                            1_GWF-(2,10,10)
 Model                             50         15       246850.06                            1_GWF-(2,10,10)
 ----------------------------------------------------------------------------------------------------------


 Solution 1 did not converge for stress period 2 and time step 11

 SLN_2 OUTER ITERATION SUMMARY
 ----------------------------------------------------------------------------------------------------------
                                OUTER      INNER                    STEP   MAXIMUM CHANGE MODEL-(CELLID) OR
 OUTER ITERATION STEP       ITERATION  ITERATION  MAXIMUM CHANGE SUCCESS             MODEL-PACKAGE-(NUMBER)
 ----------------------------------------------------------------------------------------------------------
 Model                              1          3      -2.0482516                              2_GWT-(1,1,1)
 Model                              2          1 -1.06861837E-08       *                      2_GWT-(2,8,5)
 ----------------------------------------------------------------------------------------------------------


 2 CALLS TO NUMERICAL SOLUTION IN TIME STEP 11 STRESS PERIOD 2
 4 TOTAL ITERATIONS
 
    Solving:  Stress period:     2    Time step:    12
 

 SLN_1 OUTER ITERATION SUMMARY
 ----------------------------------------------------------------------------------------------------------
                                OUTER      INNER                    STEP   MAXIMUM CHANGE MODEL-(CELLID) OR
 OUTER ITERATION STEP       ITERATION  ITERATION  MAXIMUM CHANGE SUCCESS             MODEL-PACKAGE-(NUMBER)
 ----------------------------------------------------------------------------------------------------------
 Model                              1         13      -161013.19                            1_GWF-(2,10,10)
 Model                              2         14       176805.10                             1_GWF-(2,13,3)
 Model                              3         13      -177978.92                             1_GWF-(2,13,3)
 Model                              4         14       211752.41                             1_GWF-(2,13,1)
 Model                              5         13      -213733.62                             1_GWF-(2,13,1)
 Model                              6         14       213733.62                             1_GWF-(2,13,1)
 Model                              7         13      -213733.62                             1_GWF-(2,13,1)
 Model                              8         14       213733.62                             1_GWF-(2,13,1)
 Model                              9         13      -213733.62                             1_GWF-(2,13,1)
 Model                             10         14       213733.62                             1_GWF-(2,13,1)
 Model                             11         13      -213733.62                             1_GWF-(2,13,1)
 Model                             12         14       213733.62                             1_GWF-(2,13,1)
 Model                             13         13      -213733.62                             1_GWF-(2,13,1)
 Model                             14         14       213733.62                             1_GWF-(2,13,1)
 Model                             15         13      -213733.62                             1_GWF-(2,13,1)
 Model                             16         14       213733.62                             1_GWF-(2,13,1)
 Model                             17         13      -213733.62                             1_GWF-(2,13,1)
 Model                             18         14       213733.62                             1_GWF-(2,13,1)
 Model                             19         13      -213733.62                             1_GWF-(2,13,1)
 Model                             20         14       213733.62                             1_GWF-(2,13,1)
 Model                             21         13      -213733.62                             1_GWF-(2,13,1)
 Model                             22         14       213733.62                             1_GWF-(2,13,1)
 Model                             23         13      -213733.62                             1_GWF-(2,13,1)
 Model                             24         14       213733.62                             1_GWF-(2,13,1)
 Model                             25         13      -213733.62                             1_GWF-(2,13,1)
 Model                             26         14       213733.62                             1_GWF-(2,13,1)
 Model                             27         13      -213733.62                             1_GWF-(2,13,1)
 Model                             28         14       213733.62                             1_GWF-(2,13,1)
 Model                             29         13      -213733.62                             1_GWF-(2,13,1)
 Model                             30         14       213733.62                             1_GWF-(2,13,1)
 Model                             31         13      -213733.62                             1_GWF-(2,13,1)
 Model                             32         14       213733.62                             1_GWF-(2,13,1)
 Model                             33         13      -213733.62                             1_GWF-(2,13,1)
 Model                             34         14       213733.62                             1_GWF-(2,13,1)
 Model                             35         13      -213733.62                             1_GWF-(2,13,1)
 Model                             36         14       213733.62                             1_GWF-(2,13,1)
 Model                             37         13      -213733.62                             1_GWF-(2,13,1)
 Model                             38         14       213733.62                             1_GWF-(2,13,1)
 Model                             39         13      -213733.62                             1_GWF-(2,13,1)
 Model                             40         14       213733.62                             1_GWF-(2,13,1)
 Model                             41         13      -213733.62                             1_GWF-(2,13,1)
 Model                             42         14       213733.62                             1_GWF-(2,13,1)
 Model                             43         13      -213733.62                             1_GWF-(2,13,1)
 Model                             44         14       213733.62                             1_GWF-(2,13,1)
 Model                             45         13      -213733.62                             1_GWF-(2,13,1)
 Model                             46         14       213733.62                             1_GWF-(2,13,1)
 Model                             47         13      -213733.62                             1_GWF-(2,13,1)
 Model                             48         14       213733.62                             1_GWF-(2,13,1)
 Model                             49         13      -213733.62                             1_GWF-(2,13,1)
 Model                             50         14       213733.62                             1_GWF-(2,13,1)
 ----------------------------------------------------------------------------------------------------------


 Solution 1 did not converge for stress period 2 and time step 12

 SLN_2 OUTER ITERATION SUMMARY
 ----------------------------------------------------------------------------------------------------------
                                OUTER      INNER                    STEP   MAXIMUM CHANGE MODEL-(CELLID) OR
 OUTER ITERATION STEP       ITERATION  ITERATION  MAXIMUM CHANGE SUCCESS             MODEL-PACKAGE-(NUMBER)
 ----------------------------------------------------------------------------------------------------------
 Model                              1          3      -1.7039509                              2_GWT-(1,1,1)
 Model                              2          1  6.36353437E-09       *                      2_GWT-(3,8,6)
 ----------------------------------------------------------------------------------------------------------


 2 CALLS TO NUMERICAL SOLUTION IN TIME STEP 12 STRESS PERIOD 2
 4 TOTAL ITERATIONS
 
    Solving:  Stress period:     2    Time step:    13
 

 SLN_1 OUTER ITERATION SUMMARY
 ----------------------------------------------------------------------------------------------------------
                                OUTER      INNER                    STEP   MAXIMUM CHANGE MODEL-(CELLID) OR
 OUTER ITERATION STEP       ITERATION  ITERATION  MAXIMUM CHANGE SUCCESS             MODEL-PACKAGE-(NUMBER)
 ----------------------------------------------------------------------------------------------------------
 Model                              1         14      -159617.13                             1_GWF-(2,13,3)
 Model                              2         16       705338.94                              1_GWF-(1,9,5)
 Model                              3         12      -381683.76                              1_GWF-(1,9,5)
 Model                              4         15       590145.87                              1_GWF-(1,9,5)
 Model                              5         12      -349129.07                              1_GWF-(1,9,5)
 Model                              6         15       190437.65                              1_GWF-(2,6,1)
 Model                              7         12      -189628.62                              1_GWF-(2,6,1)
 Model                              8         15       184007.85                              1_GWF-(2,6,1)
 Model                              9         12      -184007.85                              1_GWF-(2,6,1)
 Model                             10         15       184007.85                              1_GWF-(2,6,1)
 Model                             11         12      -184007.85                              1_GWF-(2,6,1)
 Model                             12         15       184007.85                              1_GWF-(2,6,1)
 Model                             13         12      -184007.85                              1_GWF-(2,6,1)
 Model                             14         15       184007.85                              1_GWF-(2,6,1)
 Model                             15         12      -184007.85                              1_GWF-(2,6,1)
 Model                             16         15       184007.85                              1_GWF-(2,6,1)
 Model                             17         12      -184007.85                              1_GWF-(2,6,1)
 Model                             18         15       184007.85                              1_GWF-(2,6,1)
 Model                             19         12      -184007.85                              1_GWF-(2,6,1)
 Model                             20         15       184007.85                              1_GWF-(2,6,1)
 Model                             21         12      -184007.85                              1_GWF-(2,6,1)
 Model                             22         15       184007.85                              1_GWF-(2,6,1)
 Model                             23         12      -184007.85                              1_GWF-(2,6,1)
 Model                             24         15       184007.85                              1_GWF-(2,6,1)
 Model                             25         12      -184007.85                              1_GWF-(2,6,1)
 Model                             26         15       184007.85                              1_GWF-(2,6,1)
 Model                             27         12      -184007.85                              1_GWF-(2,6,1)
 Model                             28         15       184007.85                              1_GWF-(2,6,1)
 Model                             29         12      -184007.85                              1_GWF-(2,6,1)
 Model                             30         15       184007.85                              1_GWF-(2,6,1)
 Model                             31         12      -184007.85                              1_GWF-(2,6,1)
 Model                             32         15       184007.85                              1_GWF-(2,6,1)
 Model                             33         12      -184007.85                              1_GWF-(2,6,1)
 Model                             34         15       184007.85                              1_GWF-(2,6,1)
 Model                             35         12      -184007.85                              1_GWF-(2,6,1)
 Model                             36         15       184007.85                              1_GWF-(2,6,1)
 Model                             37         12      -184007.85                              1_GWF-(2,6,1)
 Model                             38         15       184007.85                              1_GWF-(2,6,1)
 Model                             39         12      -184007.85                              1_GWF-(2,6,1)
 Model                             40         15       184007.85                              1_GWF-(2,6,1)
 Model                             41         12      -184007.85                              1_GWF-(2,6,1)
 Model                             42         15       184007.85                              1_GWF-(2,6,1)
 Model                             43         12      -184007.85                              1_GWF-(2,6,1)
 Model                             44         15       184007.85                              1_GWF-(2,6,1)
 Model                             45         12      -184007.85                              1_GWF-(2,6,1)
 Model                             46         15       184007.85                              1_GWF-(2,6,1)
 Model                             47         12      -184007.85                              1_GWF-(2,6,1)
 Model                             48         15       184007.85                              1_GWF-(2,6,1)
 Model                             49         12      -184007.85                              1_GWF-(2,6,1)
 Model                             50         15       184007.85                              1_GWF-(2,6,1)
 ----------------------------------------------------------------------------------------------------------


 Solution 1 did not converge for stress period 2 and time step 13

 SLN_2 OUTER ITERATION SUMMARY
 ----------------------------------------------------------------------------------------------------------
                                OUTER      INNER                    STEP   MAXIMUM CHANGE MODEL-(CELLID) OR
 OUTER ITERATION STEP       ITERATION  ITERATION  MAXIMUM CHANGE SUCCESS             MODEL-PACKAGE-(NUMBER)
 ----------------------------------------------------------------------------------------------------------
 Model                              1          3      -1.5533633                              2_GWT-(1,1,1)
 Model                              2          1 -7.87946652E-10       *                      2_GWT-(2,9,5)
 ----------------------------------------------------------------------------------------------------------


 2 CALLS TO NUMERICAL SOLUTION IN TIME STEP 13 STRESS PERIOD 2
 4 TOTAL ITERATIONS
 
    Solving:  Stress period:     2    Time step:    14
 

 SLN_1 OUTER ITERATION SUMMARY
 ----------------------------------------------------------------------------------------------------------
                                OUTER      INNER                    STEP   MAXIMUM CHANGE MODEL-(CELLID) OR
 OUTER ITERATION STEP       ITERATION  ITERATION  MAXIMUM CHANGE SUCCESS             MODEL-PACKAGE-(NUMBER)
 ----------------------------------------------------------------------------------------------------------
 Model                              1         12      -94177.026                             1_GWF-(2,13,5)
 Model                              2         12       149302.07                             1_GWF-(2,10,1)
 Model                              3         12      -183345.80                             1_GWF-(2,10,1)
 Model                              4         12       201378.77                              1_GWF-(2,9,1)
 Model                              5         12      -203728.18                              1_GWF-(2,9,1)
 Model                              6         12       215499.51                              1_GWF-(2,9,1)
 Model                              7         12      -217887.70                              1_GWF-(2,9,1)
 Model                              8         12       220355.66                              1_GWF-(2,9,1)
 Model                              9         12      -220721.55                              1_GWF-(2,9,1)
 Model                             10         12       220721.55                              1_GWF-(2,9,1)
 Model                             11         12      -220721.55                              1_GWF-(2,9,1)
 Model                             12         12       220721.55                              1_GWF-(2,9,1)
 Model                             13         12      -220721.55                              1_GWF-(2,9,1)
 Model                             14         12       220721.55                              1_GWF-(2,9,1)
 Model                             15         12      -220721.55                              1_GWF-(2,9,1)
 Model                             16         12       220721.55                              1_GWF-(2,9,1)
 Model                             17         12      -220721.55                              1_GWF-(2,9,1)
 Model                             18         12       220721.55                              1_GWF-(2,9,1)
 Model                             19         12      -220721.55                              1_GWF-(2,9,1)
 Model                             20         12       220721.55                              1_GWF-(2,9,1)
 Model                             21         12      -220721.55                              1_GWF-(2,9,1)
 Model                             22         12       220721.55                              1_GWF-(2,9,1)
 Model                             23         12      -220721.55                              1_GWF-(2,9,1)
 Model                             24         12       220721.55                              1_GWF-(2,9,1)
 Model                             25         12      -220721.55                              1_GWF-(2,9,1)
 Model                             26         12       220721.55                              1_GWF-(2,9,1)
 Model                             27         12      -220721.55                              1_GWF-(2,9,1)
 Model                             28         12       220721.55                              1_GWF-(2,9,1)
 Model                             29         12      -220721.55                              1_GWF-(2,9,1)
 Model                             30         12       220721.55                              1_GWF-(2,9,1)
 Model                             31         12      -220721.55                              1_GWF-(2,9,1)
 Model                             32         12       220721.55                              1_GWF-(2,9,1)
 Model                             33         12      -220721.55                              1_GWF-(2,9,1)
 Model                             34         12       220721.55                              1_GWF-(2,9,1)
 Model                             35         12      -220721.55                              1_GWF-(2,9,1)
 Model                             36         12       220721.55                              1_GWF-(2,9,1)
 Model                             37         12      -220721.55                              1_GWF-(2,9,1)
 Model                             38         12       220721.55                              1_GWF-(2,9,1)
 Model                             39         12      -220721.55                              1_GWF-(2,9,1)
 Model                             40         12       220721.55                              1_GWF-(2,9,1)
 Model                             41         12      -220721.55                              1_GWF-(2,9,1)
 Model                             42         12       220721.55                              1_GWF-(2,9,1)
 Model                             43         12      -220721.55                              1_GWF-(2,9,1)
 Model                             44         12       220721.55                              1_GWF-(2,9,1)
 Model                             45         12      -220721.55                              1_GWF-(2,9,1)
 Model                             46         12       220721.55                              1_GWF-(2,9,1)
 Model                             47         12      -220721.55                              1_GWF-(2,9,1)
 Model                             48         12       220721.55                              1_GWF-(2,9,1)
 Model                             49         12      -220721.55                              1_GWF-(2,9,1)
 Model                             50         12       220721.55                              1_GWF-(2,9,1)
[...]
 Model                             11         19       39201.431                             1_GWF-(3,1,10)
 Model                             12          4      -39201.431                             1_GWF-(3,1,10)
 Model                             13         19       39201.431                             1_GWF-(3,1,10)
 Model                             14          4      -39201.431                             1_GWF-(3,1,10)
 Model                             15         19       39201.431                             1_GWF-(3,1,10)
 Model                             16          4      -39201.431                             1_GWF-(3,1,10)
 Model                             17         19       39201.431                             1_GWF-(3,1,10)
 Model                             18          4      -39201.431                             1_GWF-(3,1,10)
 Model                             19         19       39201.431                             1_GWF-(3,1,10)
 Model                             20          4      -39201.431                             1_GWF-(3,1,10)
 Model                             21         19       39201.431                             1_GWF-(3,1,10)
 Model                             22          4      -39201.431                             1_GWF-(3,1,10)
 Model                             23         19       39201.431                             1_GWF-(3,1,10)
 Model                             24          4      -39201.431                             1_GWF-(3,1,10)
 Model                             25         19       39201.431                             1_GWF-(3,1,10)
 Model                             26          4      -39201.431                             1_GWF-(3,1,10)
 Model                             27         19       39201.431                             1_GWF-(3,1,10)
 Model                             28          4      -39201.431                             1_GWF-(3,1,10)
 Model                             29         19       39201.431                             1_GWF-(3,1,10)
 Model                             30          4      -39201.431                             1_GWF-(3,1,10)
 Model                             31         19       39201.431                             1_GWF-(3,1,10)
 Model                             32          4      -39201.431                             1_GWF-(3,1,10)
 Model                             33         19       39201.431                             1_GWF-(3,1,10)
 Model                             34          4      -39201.431                             1_GWF-(3,1,10)
 Model                             35         19       39201.431                             1_GWF-(3,1,10)
 Model                             36          4      -39201.431                             1_GWF-(3,1,10)
 Model                             37         19       39201.431                             1_GWF-(3,1,10)
 Model                             38          4      -39201.431                             1_GWF-(3,1,10)
 Model                             39         19       39201.431                             1_GWF-(3,1,10)
 Model                             40          4      -39201.431                             1_GWF-(3,1,10)
 Model                             41         19       39201.431                             1_GWF-(3,1,10)
 Model                             42          4      -39201.431                             1_GWF-(3,1,10)
 Model                             43         19       39201.431                             1_GWF-(3,1,10)
 Model                             44          4      -39201.431                             1_GWF-(3,1,10)
 Model                             45         19       39201.431                             1_GWF-(3,1,10)
 Model                             46          4      -39201.431                             1_GWF-(3,1,10)
 Model                             47         19       39201.431                             1_GWF-(3,1,10)
 Model                             48          4      -39201.431                             1_GWF-(3,1,10)
 Model                             49         19       39201.431                             1_GWF-(3,1,10)
 Model                             50          4      -39201.431                             1_GWF-(3,1,10)
 ----------------------------------------------------------------------------------------------------------


 Solution 1 did not converge for stress period 4 and time step 118

 SLN_2 OUTER ITERATION SUMMARY
 ----------------------------------------------------------------------------------------------------------
                                OUTER      INNER                    STEP   MAXIMUM CHANGE MODEL-(CELLID) OR
 OUTER ITERATION STEP       ITERATION  ITERATION  MAXIMUM CHANGE SUCCESS             MODEL-PACKAGE-(NUMBER)
 ----------------------------------------------------------------------------------------------------------
 Model                              1          2       6.5221018                              2_GWT-(3,1,1)
 Model                              2          1 -2.27373675E-13       *                    2_GWT-(3,15,10)
 ----------------------------------------------------------------------------------------------------------


 2 CALLS TO NUMERICAL SOLUTION IN TIME STEP 118 STRESS PERIOD 4
 3 TOTAL ITERATIONS
 
    Solving:  Stress period:     4    Time step:   119
 

 SLN_1 OUTER ITERATION SUMMARY
 ----------------------------------------------------------------------------------------------------------
                                OUTER      INNER                    STEP   MAXIMUM CHANGE MODEL-(CELLID) OR
 OUTER ITERATION STEP       ITERATION  ITERATION  MAXIMUM CHANGE SUCCESS             MODEL-PACKAGE-(NUMBER)
 ----------------------------------------------------------------------------------------------------------
 Model                              1         19       39201.431                             1_GWF-(3,1,10)
 Model                              2          4      -39201.431                             1_GWF-(3,1,10)
 Model                              3         19       39201.431                             1_GWF-(3,1,10)
 Model                              4          4      -39201.431                             1_GWF-(3,1,10)
 Model                              5         19       39201.431                             1_GWF-(3,1,10)
 Model                              6          4      -39201.431                             1_GWF-(3,1,10)
 Model                              7         19       39201.431                             1_GWF-(3,1,10)
 Model                              8          4      -39201.431                             1_GWF-(3,1,10)
 Model                              9         19       39201.431                             1_GWF-(3,1,10)
 Model                             10          4      -39201.431                             1_GWF-(3,1,10)
 Model                             11         19       39201.431                             1_GWF-(3,1,10)
 Model                             12          4      -39201.431                             1_GWF-(3,1,10)
 Model                             13         19       39201.431                             1_GWF-(3,1,10)
 Model                             14          4      -39201.431                             1_GWF-(3,1,10)
 Model                             15         19       39201.431                             1_GWF-(3,1,10)
 Model                             16          4      -39201.431                             1_GWF-(3,1,10)
 Model                             17         19       39201.431                             1_GWF-(3,1,10)
 Model                             18          4      -39201.431                             1_GWF-(3,1,10)
 Model                             19         19       39201.431                             1_GWF-(3,1,10)
 Model                             20          4      -39201.431                             1_GWF-(3,1,10)
 Model                             21         19       39201.431                             1_GWF-(3,1,10)
 Model                             22          4      -39201.431                             1_GWF-(3,1,10)
 Model                             23         19       39201.431                             1_GWF-(3,1,10)
 Model                             24          4      -39201.431                             1_GWF-(3,1,10)
 Model                             25         19       39201.431                             1_GWF-(3,1,10)
 Model                             26          4      -39201.431                             1_GWF-(3,1,10)
 Model                             27         19       39201.431                             1_GWF-(3,1,10)
 Model                             28          4      -39201.431                             1_GWF-(3,1,10)
 Model                             29         19       39201.431                             1_GWF-(3,1,10)
 Model                             30          4      -39201.431                             1_GWF-(3,1,10)
 Model                             31         19       39201.431                             1_GWF-(3,1,10)
 Model                             32          4      -39201.431                             1_GWF-(3,1,10)
 Model                             33         19       39201.431                             1_GWF-(3,1,10)
 Model                             34          4      -39201.431                             1_GWF-(3,1,10)
 Model                             35         19       39201.431                             1_GWF-(3,1,10)
 Model                             36          4      -39201.431                             1_GWF-(3,1,10)
 Model                             37         19       39201.431                             1_GWF-(3,1,10)
 Model                             38          4      -39201.431                             1_GWF-(3,1,10)
 Model                             39         19       39201.431                             1_GWF-(3,1,10)
 Model                             40          4      -39201.431                             1_GWF-(3,1,10)
 Model                             41         19       39201.431                             1_GWF-(3,1,10)
 Model                             42          4      -39201.431                             1_GWF-(3,1,10)
 Model                             43         19       39201.431                             1_GWF-(3,1,10)
 Model                             44          4      -39201.431                             1_GWF-(3,1,10)
 Model                             45         19       39201.431                             1_GWF-(3,1,10)
 Model                             46          4      -39201.431                             1_GWF-(3,1,10)
 Model                             47         19       39201.431                             1_GWF-(3,1,10)
 Model                             48          4      -39201.431                             1_GWF-(3,1,10)
 Model                             49         19       39201.431                             1_GWF-(3,1,10)
 Model                             50          4      -39201.431                             1_GWF-(3,1,10)
 ----------------------------------------------------------------------------------------------------------


 Solution 1 did not converge for stress period 4 and time step 119

 SLN_2 OUTER ITERATION SUMMARY
 ----------------------------------------------------------------------------------------------------------
                                OUTER      INNER                    STEP   MAXIMUM CHANGE MODEL-(CELLID) OR
 OUTER ITERATION STEP       ITERATION  ITERATION  MAXIMUM CHANGE SUCCESS             MODEL-PACKAGE-(NUMBER)
 ----------------------------------------------------------------------------------------------------------
 Model                              1          2       6.5178627                              2_GWT-(3,1,1)
 Model                              2          1  2.27373675E-13       *                    2_GWT-(3,15,10)
 ----------------------------------------------------------------------------------------------------------


 2 CALLS TO NUMERICAL SOLUTION IN TIME STEP 119 STRESS PERIOD 4
 3 TOTAL ITERATIONS
 
    Solving:  Stress period:     4    Time step:   120
 

 SLN_1 OUTER ITERATION SUMMARY
 ----------------------------------------------------------------------------------------------------------
                                OUTER      INNER                    STEP   MAXIMUM CHANGE MODEL-(CELLID) OR
 OUTER ITERATION STEP       ITERATION  ITERATION  MAXIMUM CHANGE SUCCESS             MODEL-PACKAGE-(NUMBER)
 ----------------------------------------------------------------------------------------------------------
 Model                              1         19       39201.431                             1_GWF-(3,1,10)
 Model                              2          4      -39201.431                             1_GWF-(3,1,10)
 Model                              3         19       39201.431                             1_GWF-(3,1,10)
 Model                              4          4      -39201.431                             1_GWF-(3,1,10)
 Model                              5         19       39201.431                             1_GWF-(3,1,10)
 Model                              6          4      -39201.431                             1_GWF-(3,1,10)
 Model                              7         19       39201.431                             1_GWF-(3,1,10)
 Model                              8          4      -39201.431                             1_GWF-(3,1,10)
 Model                              9         19       39201.431                             1_GWF-(3,1,10)
 Model                             10          4      -39201.431                             1_GWF-(3,1,10)
 Model                             11         19       39201.431                             1_GWF-(3,1,10)
 Model                             12          4      -39201.431                             1_GWF-(3,1,10)
 Model                             13         19       39201.431                             1_GWF-(3,1,10)
 Model                             14          4      -39201.431                             1_GWF-(3,1,10)
 Model                             15         19       39201.431                             1_GWF-(3,1,10)
 Model                             16          4      -39201.431                             1_GWF-(3,1,10)
 Model                             17         19       39201.431                             1_GWF-(3,1,10)
 Model                             18          4      -39201.431                             1_GWF-(3,1,10)
 Model                             19         19       39201.431                             1_GWF-(3,1,10)
 Model                             20          4      -39201.431                             1_GWF-(3,1,10)
 Model                             21         19       39201.431                             1_GWF-(3,1,10)
 Model                             22          4      -39201.431                             1_GWF-(3,1,10)
 Model                             23         19       39201.431                             1_GWF-(3,1,10)
 Model                             24          4      -39201.431                             1_GWF-(3,1,10)
 Model                             25         19       39201.431                             1_GWF-(3,1,10)
 Model                             26          4      -39201.431                             1_GWF-(3,1,10)
 Model                             27         19       39201.431                             1_GWF-(3,1,10)
 Model                             28          4      -39201.431                             1_GWF-(3,1,10)
 Model                             29         19       39201.431                             1_GWF-(3,1,10)
 Model                             30          4      -39201.431                             1_GWF-(3,1,10)
 Model                             31         19       39201.431                             1_GWF-(3,1,10)
 Model                             32          4      -39201.431                             1_GWF-(3,1,10)
 Model                             33         19       39201.431                             1_GWF-(3,1,10)
 Model                             34          4      -39201.431                             1_GWF-(3,1,10)
 Model                             35         19       39201.431                             1_GWF-(3,1,10)
 Model                             36          4      -39201.431                             1_GWF-(3,1,10)
 Model                             37         19       39201.431                             1_GWF-(3,1,10)
 Model                             38          4      -39201.431                             1_GWF-(3,1,10)
 Model                             39         19       39201.431                             1_GWF-(3,1,10)
 Model                             40          4      -39201.431                             1_GWF-(3,1,10)
 Model                             41         19       39201.431                             1_GWF-(3,1,10)
 Model                             42          4      -39201.431                             1_GWF-(3,1,10)
 Model                             43         19       39201.431                             1_GWF-(3,1,10)
 Model                             44          4      -39201.431                             1_GWF-(3,1,10)
 Model                             45         19       39201.431                             1_GWF-(3,1,10)
 Model                             46          4      -39201.431                             1_GWF-(3,1,10)
 Model                             47         19       39201.431                             1_GWF-(3,1,10)
 Model                             48          4      -39201.431                             1_GWF-(3,1,10)
 Model                             49         19       39201.431                             1_GWF-(3,1,10)
 Model                             50          4      -39201.431                             1_GWF-(3,1,10)
 ----------------------------------------------------------------------------------------------------------


 Solution 1 did not converge for stress period 4 and time step 120

 SLN_2 OUTER ITERATION SUMMARY
 ----------------------------------------------------------------------------------------------------------
                                OUTER      INNER                    STEP   MAXIMUM CHANGE MODEL-(CELLID) OR
 OUTER ITERATION STEP       ITERATION  ITERATION  MAXIMUM CHANGE SUCCESS             MODEL-PACKAGE-(NUMBER)
 ----------------------------------------------------------------------------------------------------------
 Model                              1          2       6.5136275                              2_GWT-(3,1,1)
 Model                              2          1 -4.54747351E-13       *                    2_GWT-(3,15,10)
 ----------------------------------------------------------------------------------------------------------


 2 CALLS TO NUMERICAL SOLUTION IN TIME STEP 120 STRESS PERIOD 4
 3 TOTAL ITERATIONS

 MEMORY MANAGER TOTAL STORAGE BY DATA TYPE, IN KILOBYTES
 -------------------------------
                    ALLOCATED   
 DATA TYPE           MEMORY     
 -------------------------------
 Character        14.362000     
 Logical          5.20000000E-02
 Integer          186.24000     
 Real             533.12800     
 -------------------------------
 Total            733.78200     
 Virtual          0.0000000     
 -------------------------------


 
 Run end date and time (yyyy/mm/dd hh:mm:ss): 2025/06/30 11:04:12
 Elapsed run time:  2 Minutes,  3.761 Seconds
 Normal termination of simulation.
