                                   MODFLOW 6
                U.S. GEOLOGICAL SURVEY MODULAR HYDROLOGIC MODEL
                             TRANSPORT MODEL (GWT)
                  VERSION 6.7.0.dev2 (preliminary) 05/20/2025
                               ***DEVELOP MODE***

        MODFLOW 6 compiled May 20 2025 13:40:03 with GCC version 13.3.0

This software is preliminary or provisional and is subject to 
revision. It is being provided to meet the need for timely best 
science. The software has not received final approval by the U.S. 
Geological Survey (USGS). No warranty, expressed or implied, is made 
by the USGS or the U.S. Government as to the functionality of the 
software and related material nor shall the fact of release 
constitute any such warranty. The software is provided on the 
condition that neither the USGS nor the U.S. Government shall be held 
liable for any damages resulting from the authorized or unauthorized 
use of the software.


As a work of the United States Government, this USGS product is 
in the public domain within the United States. You can copy, 
modify, distribute, and perform the work, even for commercial 
purposes, all without asking permission. Additionally, USGS 
waives copyright and related rights in the work worldwide 
through CC0 1.0 Universal Public Domain Dedication 
(https://creativecommons.org/publicdomain/zero/1.0/).

The following GNU Lesser General Public License (LGPL) libraries
are used in this USGS product:

    SPARSKIT version 2.0
      ilut, luson, and qsplit 
      (https://www-users.cse.umn.edu/~saad/software/SPARSKIT/)

    RCM - Reverse Cuthill McKee Ordering
      (https://people.math.sc.edu/Burkardt/f_src/rcm/rcm.html)

    BLAS - Basic Linear Algebra Subprograms Level 1
      (https://people.math.sc.edu/Burkardt/f_src/blas1_d/blas1_d.html)

    SPARSEKIT - Sparse Matrix Utility Package
      amux, dperm, dvperm, rperm, and cperm
      (https://people.sc.fsu.edu/~jburkardt/f77_src/sparsekit/sparsekit.html)

The following BSD-3 License libraries are used in this USGS product:

    Modern Fortran DAG Library
      Copyright (c) 2018, Jacob Williams
      All rights reserved.
      (https://github.com/jacobwilliams/daglib)

MODFLOW 6 compiler options: -fdiagnostics-color=always -cpp -I
src/libmf6core.a.p -I src -I ../src -I src/libmf6_external.a.p -iprefix
/opt/homebrew/Cellar/gcc@13/13.3.0/bin/../lib/gcc/13/gcc/aarch64-apple-darwin2
3/13/ -D__DYNAMIC__ -D __APPLE__ -fPIC -mmacosx-version-min=14.0.0
-mcpu=apple-m1 -mlittle-endian -mabi=lp64 -O1 -Wall -Wpedantic
-Wcharacter-truncation -Wno-unused-dummy-argument -Wno-intrinsic-shadow
-Wno-maybe-uninitialized -Wno-uninitialized -std=f2018 -fall-intrinsics
-ffpe-summary=overflow -ffpe-trap=overflow,zero,invalid -J src/libmf6core.a.p

System command used to initiate simulation:


MODFLOW was compiled using uniform precision.

Real Variables
  KIND: 8
  TINY (smallest non-zero value):    2.225074-308
  HUGE (largest value):    1.797693+308
  PRECISION: 15
  SIZE IN BITS: 64

Integer Variables
  KIND: 4
  HUGE (largest value): 2147483647
  SIZE IN BITS: 32

Long Integer Variables
  KIND: 8
  HUGE (largest value): 9223372036854775807
  SIZE IN BITS: 64

Logical Variables
  KIND: 4
  SIZE IN BITS: 32

 NAMEFILE OPTIONS:
    FLOWS WILL BE SAVED TO BUDGET FILE SPECIFIED IN OUTPUT CONTROL
 END NAMEFILE OPTIONS:

 DIS -- STRUCTURED GRID DISCRETIZATION PACKAGE, VERSION 2 : 3/27/2014 - INPUT READ FROM MEMPATH: __INPUT__/GWT_RIVERBASE/DIS                       


 DSP-- DISPERSION PACKAGE, VERSION 1, 1/24/2018 INPUT READ FROM MEMPATH: __INPUT__/GWT_RIVERBASE/DSP                       


 Setting Discretization Options
    Model length unit [0=UND, 1=FEET, 2=METERS, 3=CENTIMETERS] set as 2
 End Setting Discretization Options

 Setting Discretization Dimensions
    NLAY = 3
    NROW = 15
    NCOL = 10
 End Setting Discretization Dimensions

 Setting Discretization Griddata
    DELR set from input file
    DELC set from input file
    TOP set from input file
    BOTM set from input file
 End Setting Discretization Griddata


 FMI -- FLOW MODEL INTERFACE,' VERSION 2, 8/17/2023
  FLOWS PROVIDED BY A GWF MODEL IN THIS SIMULATION

 ADV-- ADVECTION PACKAGE, VERSION 1, 8/25/2017 INPUT READ FROM UNIT 1016


 # File generated by Flopy version 3.9.3 on 06/29/2025 at 15:13:48.
 PROCESSING ADVECTION OPTIONS
    ADVECTION WEIGHTING SCHEME HAS BEEN SET TO: UPSTREAM
 END OF ADVECTION OPTIONS
 Setting DSP Options
    XT3D formulation [0=INACTIVE, 1=ACTIVE, 3=ACTIVE RHS] set to: 0
 End Setting DSP Options

 Setting DSP Griddata
    ALH set from input file
    ATH1 set from input file
 End Setting DSP Griddata


 CNC   -- CNC PACKAGE, VERSION 8, 2/22/2014 INPUT READ FROM MEMPATH: __INPUT__/GWT_RIVERBASE/CNC_0                     

 PROCESSING CNC BASE OPTIONS
 END OF CNC BASE OPTIONS

 PROCESSING CNC BASE DIMENSIONS
    MAXBOUND =       2
 END OF CNC BASE DIMENSIONS
    STRT set from input file

 MST -- MOBILE STORAGE AND TRANSFER PACKAGE, VERSION 1, 7/29/2020 INPUT READ FROM UNIT 1015


 # File generated by Flopy version 3.9.3 on 06/29/2025 at 15:13:48.
 PROCESSING MOBILE STORAGE AND TRANSFER OPTIONS
 END OF MOBILE STORAGE AND TRANSFER OPTIONS
 PROCESSING GRIDDATA

   MOBILE DOMAIN POROSITY =  0.3500000    
 END PROCESSING GRIDDATA

 SSM -- SOURCE-SINK MIXING PACKAGE, VERSION 1, 8/25/2017 INPUT READ FROM UNIT 1018


 # File generated by Flopy version 3.9.3 on 06/29/2025 at 15:13:48.
 PROCESSING SSM OPTIONS
 END OF SSM OPTIONS
 PROCESSING SOURCES
 AUX SOURCE DETECTED.
    USING AUX COLUMN 1 IN PACKAGE CHD-1
 END PROCESSING SOURCES
 OPTIONAL FILEINPUT BLOCK NOT FOUND.  CONTINUING.
      THE LAST TIME STEP WILL BE PRINTED
      THE LAST TIME STEP WILL BE PRINTED
 # File generated by Flopy version 3.9.3 on 06/29/2025 at 15:13:48.

 PROCESSING OC OPTIONS

    BUDGET INFORMATION WILL BE WRITTEN TO:
      UNIT NUMBER: 1029
      FILE NAME: gwt_riverbase.cbc

 OPENED gwt_riverbase.cbc
 FILE TYPE:DATA(BINARY)   UNIT 1029   STATUS:REPLACE             
 FORMAT:UNFORMATTED            ACCESS:STREAM              
 ACTION:READWRITE           

    CONCENTRATION INFORMATION WILL BE WRITTEN TO:
      UNIT NUMBER: 1030
      FILE NAME: gwt_riverbase.ucn

 OPENED gwt_riverbase.ucn
 FILE TYPE:DATA(BINARY)   UNIT 1030   STATUS:REPLACE             
 FORMAT:UNFORMATTED            ACCESS:STREAM              
 ACTION:READWRITE           

 END OF OC OPTIONS

start timestep kper="1" kstp="1" mode="normal"


 BEGIN READING OUTPUT CONTROL FOR STRESS PERIOD 1
      ALL TIME STEPS WILL BE SAVED
      ALL TIME STEPS WILL BE SAVED
      ALL TIME STEPS WILL BE PRINTED
      ALL TIME STEPS WILL BE PRINTED

 END READING OUTPUT CONTROL FOR STRESS PERIOD 1
 UBDSV1 SAVING  STORAGE-AQUEOUS ON UNIT   1029 AT TIME STEP      1, STRESS PERIOD      1
 UBDSV1 SAVING     FLOW-JA-FACE ON UNIT   1029 AT TIME STEP      1, STRESS PERIOD      1
 UBDSV06 SAVING  SOURCE-SINK MIX IN MODEL GWT_RIVERBASE    PACKAGE GWT_RIVERBASE   CONNECTED TO MODEL GWT_RIVERBASE    PACKAGE SSM              ON UNIT   1029 AT TIME STEP      1, STRESS PERIOD      1
 UBDSV06 SAVING              CNC IN MODEL GWT_RIVERBASE    PACKAGE GWT_RIVERBASE   CONNECTED TO MODEL GWT_RIVERBASE    PACKAGE CNC_0            ON UNIT   1029 AT TIME STEP      1, STRESS PERIOD      1
1
  CONCENTRATION IN LAYER   1 AT END OF TIME STEP   1 IN STRESS PERIOD    1
  ---------------------------------------------------------------------------

                1               2               3               4               5               6               7               8               9              10
 ................................................................................................................................................................
   1      1.00000         1.00000         1.00000         1.00000         1.00000         1.00000         1.00000         1.00000         1.00000         1.00000    
   2     0.999998         1.00000        0.999998         1.00000         1.00000         1.00000         1.00000         1.00000         1.00000         1.00000    
   3      1.00000        0.999998         1.00000         1.00000         1.00000         1.00000         1.00000         1.00000         1.00000         1.00000    
   4      1.00000         1.00000        0.999998         1.00000         1.00000         1.00000         1.00000         1.00000         1.00000         1.00000    
   5      1.00000         1.00000         1.00000        0.999998        0.999998         1.00000         1.00000         1.00000         1.00000         1.00000    
   6      1.00000         10.0000         1.00000        0.999998         1.00000        0.999997         1.00000         1.00000         1.00000         1.00000    
   7      1.00000         10.0000         1.00000         1.00000         1.00000         1.00000        0.999997         1.00000         1.00000         1.00000    
   8      1.00000         1.00000         1.00000         1.00000         1.00000         1.00000         1.00000        0.999997        0.999997         1.00000    
   9      1.00000         1.00000         1.00000         1.00000         1.00000         1.00000         1.00000        0.999997         1.00000         1.00000    
  10      1.00000         1.00000         1.00000         1.00000         1.00000         1.00000         1.00000         1.00000         1.00000         1.00000    
  11      1.00000         1.00000         1.00000         1.00000         1.00000         1.00000         1.00000         1.00000         1.00000         1.00000    
  12      1.00000         1.00000         1.00000         1.00000         1.00000         1.00000         1.00000         1.00000         1.00000         1.00000    
  13      1.00000         1.00000         1.00000         1.00000         1.00000         1.00000         1.00000         1.00000         1.00000         1.00000    
  14      1.00000         1.00000         1.00000         1.00000         1.00000         1.00000         1.00000         1.00000         1.00000         1.00000    
  15      1.00000         1.00000         1.00000         1.00000         1.00000         1.00000         1.00000         1.00000         1.00000         1.00000    
1
  CONCENTRATION IN LAYER   2 AT END OF TIME STEP   1 IN STRESS PERIOD    1
  ---------------------------------------------------------------------------

                1               2               3               4               5               6               7               8               9              10
 ................................................................................................................................................................
   1      1.00000         1.00000         1.00000         1.00000         1.00000         1.00000         1.00000         1.00000         1.00000         1.00000    
   2      1.00000         1.00000         1.00000         1.00000         1.00000         1.00000         1.00000         1.00000         1.00000         1.00000    
   3      1.00000         1.00000         1.00000         1.00000         1.00000         1.00000         1.00000         1.00000         1.00000         1.00000    
   4      1.00000         1.00000         1.00000         1.00000         1.00000         1.00000         1.00000         1.00000         1.00000         1.00000    
   5      1.00000         1.00000         1.00000         1.00000         1.00000         1.00000         1.00000         1.00000         1.00000         1.00000    
   6      1.00000         1.00000         1.00000         1.00000         1.00000         1.00000         1.00000         1.00000         1.00000         1.00000    
   7      1.00000         1.00000         1.00000         1.00000         1.00000         1.00000         1.00000         1.00000         1.00000         1.00000    
   8      1.00000         1.00000         1.00000         1.00000         1.00000         1.00000         1.00000         1.00000         1.00000         1.00000    
   9      1.00000         1.00000         1.00000         1.00000         1.00000         1.00000         1.00000         1.00000         1.00000         1.00000    
  10      1.00000         1.00000         1.00000         1.00000         1.00000         1.00000         1.00000         1.00000         1.00000         1.00000    
  11      1.00000         1.00000         1.00000         1.00000         1.00000         1.00000         1.00000         1.00000         1.00000         1.00000    
  12      1.00000         1.00000         1.00000         1.00000         1.00000         1.00000         1.00000         1.00000         1.00000         1.00000    
  13      1.00000         1.00000         1.00000         1.00000         1.00000         1.00000         1.00000         1.00000         1.00000         1.00000    
  14      1.00000         1.00000         1.00000         1.00000         1.00000         1.00000         1.00000         1.00000         1.00000         1.00000    
  15      1.00000         1.00000         1.00000         1.00000         1.00000         1.00000         1.00000         1.00000         1.00000         1.00000    
1
  CONCENTRATION IN LAYER   3 AT END OF TIME STEP   1 IN STRESS PERIOD    1
  ---------------------------------------------------------------------------

                1               2               3               4               5               6               7               8               9              10
 ................................................................................................................................................................
   1      1.00000         1.00000         1.00000         1.00000         1.00000         1.00000         1.00000         1.00000         1.00000         1.00000    
   2      1.00000         1.00000         1.00000         1.00000         1.00000         1.00000         1.00000         1.00000         1.00000         1.00000    
   3      1.00000         1.00000         1.00000         1.00000         1.00000         1.00000         1.00000         1.00000         1.00000         1.00000    
   4      1.00000         1.00000         1.00000         1.00000         1.00000         1.00000         1.00000         1.00000         1.00000         1.00000    
   5      1.00000         1.00000         1.00000         1.00000         1.00000         1.00000         1.00000         1.00000         1.00000         1.00000    
   6      1.00000         1.00000         1.00000         1.00000         1.00000         1.00000         1.00000         1.00000         1.00000         1.00000    
   7      1.00000         1.00000         1.00000         1.00000         1.00000         1.00000         1.00000         1.00000         1.00000         1.00000    
   8      1.00000         1.00000         1.00000         1.00000         1.00000         1.00000         1.00000         1.00000         1.00000         1.00000    
   9      1.00000         1.00000         1.00000         1.00000         1.00000         1.00000         1.00000         1.00000         1.00000         1.00000    
  10      1.00000         1.00000         1.00000         1.00000         1.00000         1.00000         1.00000         1.00000         1.00000         1.00000    
  11      1.00000         1.00000         1.00000         1.00000         1.00000         1.00000         1.00000         1.00000         1.00000         1.00000    
  12      1.00000         1.00000         1.00000         1.00000         1.00000         1.00000         1.00000         1.00000         1.00000         1.00000    
  13      1.00000         1.00000         1.00000         1.00000         1.00000         1.00000         1.00000         1.00000         1.00000         1.00000    
  14      1.00000         1.00000         1.00000         1.00000         1.00000         1.00000         1.00000         1.00000         1.00000         1.00000    
  15      1.00000         1.00000         1.00000         1.00000         1.00000         1.00000         1.00000         1.00000         1.00000         1.00000    

 CONCENTRATION WILL BE SAVED ON UNIT 1030 AT END OF TIME STEP    1, STRESS PERIOD    1


  MASS BUDGET FOR ENTIRE MODEL AT END OF TIME STEP    1, STRESS PERIOD   1
  ---------------------------------------------------------------------------------------------------

     CUMULATIVE MASS      M       RATES FOR THIS TIME STEP      M/T          PACKAGE NAME    
     ------------------                 ------------------------                     ----------------

           IN:                                      IN:
           ---                                      ---
     STORAGE-AQUEOUS =           2.0512       STORAGE-AQUEOUS =           2.0512     MST                              
                 RIV =           0.0000                   RIV =           0.0000     SSM_RIV-1                        
                 CHD =           0.0000                   CHD =           0.0000     SSM_CHD-1                        
                 CNC =           0.8597                   CNC =           0.8597     CNC_0                            

            TOTAL IN =           2.9109              TOTAL IN =           2.9109

          OUT:                                     OUT:
          ----                                     ----
     STORAGE-AQUEOUS =           0.9076       STORAGE-AQUEOUS =           0.9076     MST                              
                 RIV =           0.0000                   RIV =           0.0000     SSM_RIV-1                        
                 CHD =           1.9259                   CHD =           1.9259     SSM_CHD-1                        
                 CNC =       7.7439E-02                   CNC =       7.7439E-02     CNC_0                            

           TOTAL OUT =           2.9109             TOTAL OUT =           2.9109

            IN - OUT =      -6.0938E-12              IN - OUT =      -6.0938E-12

 PERCENT DISCREPANCY =          -0.00     PERCENT DISCREPANCY =          -0.00




         TIME SUMMARY AT END OF TIME STEP    1 IN STRESS PERIOD    1
                    SECONDS     MINUTES      HOURS       DAYS        YEARS
                    -----------------------------------------------------------
   TIME STEP LENGTH  86400.      1440.0      24.000      1.0000     2.73785E-03
 STRESS PERIOD TIME  86400.      1440.0      24.000      1.0000     2.73785E-03
         TOTAL TIME  86400.      1440.0      24.000      1.0000     2.73785E-03


end timestep


start timestep kper="2" kstp="1" mode="normal"


 END OF FILE DETECTED IN OUTPUT CONTROL.
 CURRENT OUTPUT CONTROL SETTINGS WILL BE 
 REPEATED UNTIL THE END OF THE SIMULATION.

 OUTPUT CONTROL FOR STRESS PERIOD 2 IS REPEATED USING SETTINGS FROM A PREVIOUS STRESS PERIOD.
 UBDSV1 SAVING  STORAGE-AQUEOUS ON UNIT   1029 AT TIME STEP      1, STRESS PERIOD      2
 UBDSV1 SAVING     FLOW-JA-FACE ON UNIT   1029 AT TIME STEP      1, STRESS PERIOD      2
 UBDSV06 SAVING  SOURCE-SINK MIX IN MODEL GWT_RIVERBASE    PACKAGE GWT_RIVERBASE   CONNECTED TO MODEL GWT_RIVERBASE    PACKAGE SSM              ON UNIT   1029 AT TIME STEP      1, STRESS PERIOD      2
 UBDSV06 SAVING              CNC IN MODEL GWT_RIVERBASE    PACKAGE GWT_RIVERBASE   CONNECTED TO MODEL GWT_RIVERBASE    PACKAGE CNC_0            ON UNIT   1029 AT TIME STEP      1, STRESS PERIOD      2
1
  CONCENTRATION IN LAYER   1 AT END OF TIME STEP   1 IN STRESS PERIOD    2
  ---------------------------------------------------------------------------

                1               2               3               4               5               6               7               8               9              10
 ................................................................................................................................................................
   1      1.00000         1.00000         1.00000         1.00000         1.00000         1.00000         1.00000         1.00000         1.00000         1.00000    
   2     0.999998         1.00000        0.999998         1.00000         1.00000         1.00000         1.00000         1.00000         1.00000         1.00000    
   3      1.00000        0.999998         1.00000         1.00000         1.00000         1.00000         1.00000         1.00000         1.00000         1.00000    
   4      1.00000         1.00000        0.999998         1.00000         1.00000         1.00000         1.00000         1.00000         1.00000         1.00000    
   5      1.00000         1.00000         1.00000        0.999997        0.999997         1.00000         1.00000         1.00000         1.00000         1.00000    
   6      1.00000         10.0000         1.00000        0.999997         1.00000        0.999997         1.00000         1.00000         1.00000         1.00000    
   7      1.00000         10.0000         1.00000         1.00000         1.00000         1.00000        0.999997         1.00000         1.00000         1.00000    
   8      1.00000         1.00000         1.00000         1.00000         1.00000         1.00000         1.00000        0.999997        0.999997         1.00000    
   9      1.00000         1.00000         1.00000         1.00000         1.00000         1.00000         1.00000        0.999997         1.00000         1.00000    
  10      1.00000         1.00000         1.00000         1.00000         1.00000         1.00000         1.00000         1.00000         1.00000         1.00000    
  11      1.00000         1.00000         1.00000         1.00000         1.00000         1.00000         1.00000         1.00000         1.00000         1.00000    
  12      1.00000         1.00000         1.00000         1.00000         1.00000         1.00000         1.00000         1.00000         1.00000         1.00000    
  13      1.00000         1.00000         1.00000         1.00000         1.00000         1.00000         1.00000         1.00000         1.00000         1.00000    
  14      1.00000         1.00000         1.00000         1.00000         1.00000         1.00000         1.00000         1.00000         1.00000         1.00000    
  15      1.00000         1.00000         1.00000         1.00000         1.00000         1.00000         1.00000         1.00000         1.00000         1.00000    
1
  CONCENTRATION IN LAYER   2 AT END OF TIME STEP   1 IN STRESS PERIOD    2
  ---------------------------------------------------------------------------

                1               2               3               4               5               6               7               8               9              10
 ................................................................................................................................................................
   1      1.00000         1.00000         1.00000         1.00000         1.00000         1.00000         1.00000         1.00000         1.00000         1.00000    
   2      1.00000         1.00000         1.00000         1.00000         1.00000         1.00000         1.00000         1.00000         1.00000         1.00000    
   3      1.00000         1.00000         1.00000         1.00000         1.00000         1.00000         1.00000         1.00000         1.00000         1.00000    
   4      1.00000         1.00000         1.00000         1.00000         1.00000         1.00000         1.00000         1.00000         1.00000         1.00000    
   5      1.00000         1.00000         1.00000         1.00000         1.00000         1.00000         1.00000         1.00000         1.00000         1.00000    
   6      1.00000         1.00000         1.00000         1.00000         1.00000         1.00000         1.00000         1.00000         1.00000         1.00000    
   7      1.00000         1.00000         1.00000         1.00000         1.00000         1.00000         1.00000         1.00000         1.00000         1.00000    
   8      1.00000         1.00000         1.00000         1.00000         1.00000         1.00000         1.00000         1.00000         1.00000         1.00000    
   9      1.00000         1.00000         1.00000         1.00000         1.00000         1.00000         1.00000         1.00000         1.00000         1.00000    
  10      1.00000         1.00000         1.00000         1.00000         1.00000         1.00000         1.00000         1.00000         1.00000         1.00000    
  11      1.00000         1.00000         1.00000         1.00000         1.00000         1.00000         1.00000         1.00000         1.00000         1.00000    
  12      1.00000         1.00000         1.00000         1.00000         1.00000         1.00000         1.00000         1.00000         1.00000         1.00000    
  13      1.00000         1.00000         1.00000         1.00000         1.00000         1.00000         1.00000         1.00000         1.00000         1.00000    
  14      1.00000         1.00000         1.00000         1.00000         1.00000         1.00000         1.00000         1.00000         1.00000         1.00000    
  15      1.00000         1.00000         1.00000         1.00000         1.00000         1.00000         1.00000         1.00000         1.00000         1.00000    
1
  CONCENTRATION IN LAYER   3 AT END OF TIME STEP   1 IN STRESS PERIOD    2
  ---------------------------------------------------------------------------

                1               2               3               4               5               6               7               8               9              10
 ................................................................................................................................................................
   1      1.00000         1.00000         1.00000         1.00000         1.00000         1.00000         1.00000         1.00000         1.00000         1.00000    
   2      1.00000         1.00000         1.00000         1.00000         1.00000         1.00000         1.00000         1.00000         1.00000         1.00000    
   3      1.00000         1.00000         1.00000         1.00000         1.00000         1.00000         1.00000         1.00000         1.00000         1.00000    
   4      1.00000         1.00000         1.00000         1.00000         1.00000         1.00000         1.00000         1.00000         1.00000         1.00000    
   5      1.00000         1.00000         1.00000         1.00000         1.00000         1.00000         1.00000         1.00000         1.00000         1.00000    
   6      1.00000         1.00000         1.00000         1.00000         1.00000         1.00000         1.00000         1.00000         1.00000         1.00000    
   7      1.00000         1.00000         1.00000         1.00000         1.00000         1.00000         1.00000         1.00000         1.00000         1.00000    
   8      1.00000         1.00000         1.00000         1.00000         1.00000         1.00000         1.00000         1.00000         1.00000         1.00000    
   9      1.00000         1.00000         1.00000         1.00000         1.00000         1.00000         1.00000         1.00000         1.00000         1.00000    
  10      1.00000         1.00000         1.00000         1.00000         1.00000         1.00000         1.00000         1.00000         1.00000         1.00000    
  11      1.00000         1.00000         1.00000         1.00000         1.00000         1.00000         1.00000         1.00000         1.00000         1.00000    
  12      1.00000         1.00000         1.00000         1.00000         1.00000         1.00000         1.00000         1.00000         1.00000         1.00000    
  13      1.00000         1.00000         1.00000         1.00000         1.00000         1.00000         1.00000         1.00000         1.00000         1.00000    
  14      1.00000         1.00000         1.00000         1.00000         1.00000         1.00000         1.00000         1.00000         1.00000         1.00000    
  15      1.00000         1.00000         1.00000         1.00000         1.00000         1.00000         1.00000         1.00000         1.00000         1.00000    

 CONCENTRATION WILL BE SAVED ON UNIT 1030 AT END OF TIME STEP    1, STRESS PERIOD    2


  MASS BUDGET FOR ENTIRE MODEL AT END OF TIME STEP    1, STRESS PERIOD   2
  ---------------------------------------------------------------------------------------------------

     CUMULATIVE MASS      M       RATES FOR THIS TIME STEP      M/T          PACKAGE NAME    
     ------------------                 ------------------------                     ----------------

           IN:                                      IN:
           ---                                      ---
     STORAGE-AQUEOUS =           2.2218       STORAGE-AQUEOUS =           2.0479     MST                              
                 RIV =           0.0000                   RIV =           0.0000     SSM_RIV-1                        
                 CHD =           0.0000                   CHD =           0.0000     SSM_CHD-1                        
                 CNC =           0.9308                   CNC =           0.8535     CNC_0                            

            TOTAL IN =           3.1527              TOTAL IN =           2.9014

          OUT:                                     OUT:
          ----                                     ----
     STORAGE-AQUEOUS =           0.9824       STORAGE-AQUEOUS =           0.8980     MST                              
                 RIV =           0.0000                   RIV =           0.0000     SSM_RIV-1                        
                 CHD =           2.0864                   CHD =           1.9259     SSM_CHD-1                        
                 CNC =       8.3893E-02                   CNC =       7.7439E-02     CNC_0                            

           TOTAL OUT =           3.1527             TOTAL OUT =           2.9014

            IN - OUT =      -7.5655E-11              IN - OUT =      -8.3475E-10

 PERCENT DISCREPANCY =          -0.00     PERCENT DISCREPANCY =          -0.00




         TIME SUMMARY AT END OF TIME STEP    1 IN STRESS PERIOD    2
                    SECONDS     MINUTES      HOURS       DAYS        YEARS
                    -----------------------------------------------------------
   TIME STEP LENGTH  7200.0      120.00      2.0000     8.33333E-02 2.28154E-04
 STRESS PERIOD TIME  7200.0      120.00      2.0000     8.33333E-02 2.28154E-04
         TOTAL TIME  93600.      1560.0      26.000      1.0833     2.96601E-03


end timestep


start timestep kper="2" kstp="2" mode="normal"

 UBDSV1 SAVING  STORAGE-AQUEOUS ON UNIT   1029 AT TIME STEP      2, STRESS PERIOD      2
 UBDSV1 SAVING     FLOW-JA-FACE ON UNIT   1029 AT TIME STEP      2, STRESS PERIOD      2
 UBDSV06 SAVING  SOURCE-SINK MIX IN MODEL GWT_RIVERBASE    PACKAGE GWT_RIVERBASE   CONNECTED TO MODEL GWT_RIVERBASE    PACKAGE SSM              ON UNIT   1029 AT TIME STEP      2, STRESS PERIOD      2
 UBDSV06 SAVING              CNC IN MODEL GWT_RIVERBASE    PACKAGE GWT_RIVERBASE   CONNECTED TO MODEL GWT_RIVERBASE    PACKAGE CNC_0            ON UNIT   1029 AT TIME STEP      2, STRESS PERIOD      2
1
  CONCENTRATION IN LAYER   1 AT END OF TIME STEP   2 IN STRESS PERIOD    2
  ---------------------------------------------------------------------------

                1               2               3               4               5               6               7               8               9              10
 ................................................................................................................................................................
   1      1.00000         1.00000         1.00000         1.00000         1.00000         1.00000         1.00000         1.00000         1.00000         1.00000    
   2     0.999998         1.00000        0.999997         1.00000         1.00000         1.00000         1.00000         1.00000         1.00000         1.00000    
   3      1.00000        0.999997         1.00000         1.00000         1.00000         1.00000         1.00000         1.00000         1.00000         1.00000    
   4      1.00000         1.00000        0.999997         1.00000         1.00000         1.00000         1.00000         1.00000         1.00000         1.00000    
   5      1.00000         1.00000         1.00000        0.999997        0.999997         1.00000         1.00000         1.00000         1.00000         1.00000    
   6      1.00000         10.0000         1.00000        0.999997         1.00000        0.999997         1.00000         1.00000         1.00000         1.00000    
   7      1.00000         10.0000         1.00000         1.00000         1.00000         1.00000        0.999997         1.00000         1.00000         1.00000    
   8      1.00000         1.00000         1.00000         1.00000         1.00000         1.00000         1.00000        0.999997        0.999997         1.00000    
   9      1.00000         1.00000         1.00000         1.00000         1.00000         1.00000         1.00000        0.999997         1.00000         1.00000    
  10      1.00000         1.00000         1.00000         1.00000         1.00000         1.00000         1.00000         1.00000         1.00000         1.00000    
  11      1.00000         1.00000         1.00000         1.00000         1.00000         1.00000         1.00000         1.00000         1.00000         1.00000    
  12      1.00000         1.00000         1.00000         1.00000         1.00000         1.00000         1.00000         1.00000         1.00000         1.00000    
  13      1.00000         1.00000         1.00000         1.00000         1.00000         1.00000         1.00000         1.00000         1.00000         1.00000    
  14      1.00000         1.00000         1.00000         1.00000         1.00000         1.00000         1.00000         1.00000         1.00000         1.00000    
  15      1.00000         1.00000         1.00000         1.00000         1.00000         1.00000         1.00000         1.00000         1.00000         1.00000    
1
  CONCENTRATION IN LAYER   2 AT END OF TIME STEP   2 IN STRESS PERIOD    2
  ---------------------------------------------------------------------------

                1               2               3               4               5               6               7               8               9              10
 ................................................................................................................................................................
   1      1.00000         1.00000         1.00000         1.00000         1.00000         1.00000         1.00000         1.00000         1.00000         1.00000    
   2      1.00000         1.00000         1.00000         1.00000         1.00000         1.00000         1.00000         1.00000         1.00000         1.00000    
   3      1.00000         1.00000         1.00000         1.00000         1.00000         1.00000         1.00000         1.00000         1.00000         1.00000    
   4      1.00000         1.00000         1.00000         1.00000         1.00000         1.00000         1.00000         1.00000         1.00000         1.00000    
   5      1.00000         1.00000         1.00000         1.00000         1.00000         1.00000         1.00000         1.00000         1.00000         1.00000    
   6      1.00000         1.00000         1.00000         1.00000         1.00000         1.00000         1.00000         1.00000         1.00000         1.00000    
   7      1.00000         1.00000         1.00000         1.00000         1.00000         1.00000         1.00000         1.00000         1.00000         1.00000    
   8      1.00000         1.00000         1.00000         1.00000         1.00000         1.00000         1.00000         1.00000         1.00000         1.00000    
   9      1.00000         1.00000         1.00000         1.00000         1.00000         1.00000         1.00000         1.00000         1.00000         1.00000    
  10      1.00000         1.00000         1.00000         1.00000         1.00000         1.00000         1.00000         1.00000         1.00000         1.00000    
  11      1.00000         1.00000         1.00000         1.00000         1.00000         1.00000         1.00000         1.00000         1.00000         1.00000    
  12      1.00000         1.00000         1.00000         1.00000         1.00000         1.00000         1.00000         1.00000         1.00000         1.00000    
  13      1.00000         1.00000         1.00000         1.00000         1.00000         1.00000         1.00000         1.00000         1.00000         1.00000    
  14      1.00000         1.00000         1.00000         1.00000         1.00000         1.00000         1.00000         1.00000         1.00000         1.00000    
  15      1.00000         1.00000         1.00000         1.00000         1.00000         1.00000         1.00000         1.00000         1.00000         1.00000    
1
  CONCENTRATION IN LAYER   3 AT END OF TIME STEP   2 IN STRESS PERIOD    2
  ---------------------------------------------------------------------------

                1               2               3               4               5               6               7               8               9              10
 ................................................................................................................................................................
   1      1.00000         1.00000         1.00000         1.00000         1.00000         1.00000         1.00000         1.00000         1.00000         1.00000    
   2      1.00000         1.00000         1.00000         1.00000         1.00000         1.00000         1.00000         1.00000         1.00000         1.00000    
   3      1.00000         1.00000         1.00000         1.00000         1.00000         1.00000         1.00000         1.00000         1.00000         1.00000    
   4      1.00000         1.00000         1.00000         1.00000         1.00000         1.00000         1.00000         1.00000         1.00000         1.00000    
   5      1.00000         1.00000         1.00000         1.00000         1.00000         1.00000         1.00000         1.00000         1.00000         1.00000    
   6      1.00000         1.00000         1.00000         1.00000         1.00000         1.00000         1.00000         1.00000         1.00000         1.00000    
   7      1.00000         1.00000         1.00000         1.00000         1.00000         1.00000         1.00000         1.00000         1.00000         1.00000    
   8      1.00000         1.00000         1.00000         1.00000         1.00000         1.00000         1.00000         1.00000         1.00000         1.00000    
   9      1.00000         1.00000         1.00000         1.00000         1.00000         1.00000         1.00000         1.00000         1.00000         1.00000    
  10      1.00000         1.00000         1.00000         1.00000         1.00000         1.00000         1.00000         1.00000         1.00000         1.00000    
  11      1.00000         1.00000         1.00000         1.00000         1.00000         1.00000         1.00000         1.00000         1.00000         1.00000    
  12      1.00000         1.00000         1.00000         1.00000         1.00000         1.00000         1.00000         1.00000         1.00000         1.00000    
  13      1.00000         1.00000         1.00000         1.00000         1.00000         1.00000         1.00000         1.00000         1.00000         1.00000    
  14      1.00000         1.00000         1.00000         1.00000         1.00000         1.00000         1.00000         1.00000         1.00000         1.00000    
  15      1.00000         1.00000         1.00000         1.00000         1.00000         1.00000         1.00000         1.00000         1.00000         1.00000    

 CONCENTRATION WILL BE SAVED ON UNIT 1030 AT END OF TIME STEP    2, STRESS PERIOD    2


  MASS BUDGET FOR ENTIRE MODEL AT END OF TIME STEP    2, STRESS PERIOD   2
  ---------------------------------------------------------------------------------------------------

     CUMULATIVE MASS      M       RATES FOR THIS TIME STEP      M/T          PACKAGE NAME    
     ------------------                 ------------------------                     ----------------

           IN:                                      IN:
           ---                                      ---
     STORAGE-AQUEOUS =           2.3924       STORAGE-AQUEOUS =           2.0476     MST                              
                 RIV =           0.0000                   RIV =           0.0000     SSM_RIV-1                        
                 CHD =           0.0000                   CHD =           0.0000     SSM_CHD-1                        
                 CNC =           1.0019                   CNC =           0.8525     CNC_0                            

            TOTAL IN =           3.3943              TOTAL IN =           2.9001

          OUT:                                     OUT:
          ----                                     ----
     STORAGE-AQUEOUS =           1.0571       STORAGE-AQUEOUS =           0.8968     MST                              
                 RIV =           0.0000                   RIV =           0.0000     SSM_RIV-1                        
                 CHD =           2.2469                   CHD =           1.9259     SSM_CHD-1                        
                 CNC =       9.0346E-02                   CNC =       7.7439E-02     CNC_0                            

           TOTAL OUT =           3.3943             TOTAL OUT =           2.9001

            IN - OUT =      -3.3605E-10              IN - OUT =      -3.1247E-09

 PERCENT DISCREPANCY =          -0.00     PERCENT DISCREPANCY =          -0.00




         TIME SUMMARY AT END OF TIME STEP    2 IN STRESS PERIOD    2
                    SECONDS     MINUTES      HOURS       DAYS        YEARS
                    -----------------------------------------------------------
   TIME STEP LENGTH  7200.0      120.00      2.0000     8.33333E-02 2.28154E-04
 STRESS PERIOD TIME  14400.      240.00      4.0000     0.16667     4.56308E-04
         TOTAL TIME 1.00800E+05  1680.0      28.000      1.1667     3.19416E-03


end timestep


start timestep kper="2" kstp="3" mode="normal"

 UBDSV1 SAVING  STORAGE-AQUEOUS ON UNIT   1029 AT TIME STEP      3, STRESS PERIOD      2
 UBDSV1 SAVING     FLOW-JA-FACE ON UNIT   1029 AT TIME STEP      3, STRESS PERIOD      2
 UBDSV06 SAVING  SOURCE-SINK MIX IN MODEL GWT_RIVERBASE    PACKAGE GWT_RIVERBASE   CONNECTED TO MODEL GWT_RIVERBASE    PACKAGE SSM              ON UNIT   1029 AT TIME STEP      3, STRESS PERIOD      2
 UBDSV06 SAVING              CNC IN MODEL GWT_RIVERBASE    PACKAGE GWT_RIVERBASE   CONNECTED TO MODEL GWT_RIVERBASE    PACKAGE CNC_0            ON UNIT   1029 AT TIME STEP      3, STRESS PERIOD      2
1
  CONCENTRATION IN LAYER   1 AT END OF TIME STEP   3 IN STRESS PERIOD    2
  ---------------------------------------------------------------------------

                1               2               3               4               5               6               7               8               9              10
 ................................................................................................................................................................
   1      1.00000         1.00000         1.00000         1.00000         1.00000         1.00000         1.00000         1.00000         1.00000         1.00000    
   2     0.999997         1.00000        0.999997         1.00000         1.00000         1.00000         1.00000         1.00000         1.00000         1.00000    
   3      1.00000        0.999997         1.00000         1.00000         1.00000         1.00000         1.00000         1.00000         1.00000         1.00000    
   4      1.00000         1.00000        0.999997         1.00000         1.00000         1.00000         1.00000         1.00000         1.00000         1.00000    
   5      1.00000         1.00000         1.00000        0.999997        0.999997         1.00000         1.00000         1.00000         1.00000         1.00000    
   6      1.00000         10.0000         1.00000        0.999997         1.00000        0.999997         1.00000         1.00000         1.00000         1.00000    
   7      1.00000         10.0000         1.00000         1.00000         1.00000         1.00000        0.999997         1.00000         1.00000         1.00000    
   8      1.00000         1.00000         1.00000         1.00000         1.00000         1.00000         1.00000        0.999997        0.999997         1.00000    
   9      1.00000         1.00000         1.00000         1.00000         1.00000         1.00000         1.00000        0.999997         1.00000         1.00000    
  10      1.00000         1.00000         1.00000         1.00000         1.00000         1.00000         1.00000         1.00000         1.00000         1.00000    
  11      1.00000         1.00000         1.00000         1.00000         1.00000         1.00000         1.00000         1.00000         1.00000         1.00000    
  12      1.00000         1.00000         1.00000         1.00000         1.00000         1.00000         1.00000         1.00000         1.00000         1.00000    
  13      1.00000         1.00000         1.00000         1.00000         1.00000         1.00000         1.00000         1.00000         1.00000         1.00000    
  14      1.00000         1.00000         1.00000         1.00000         1.00000         1.00000         1.00000         1.00000         1.00000         1.00000    
  15      1.00000         1.00000         1.00000         1.00000         1.00000         1.00000         1.00000         1.00000         1.00000         1.00000    
1
  CONCENTRATION IN LAYER   2 AT END OF TIME STEP   3 IN STRESS PERIOD    2
  ---------------------------------------------------------------------------

                1               2               3               4               5               6               7               8               9              10
 ................................................................................................................................................................
   1      1.00000         1.00000         1.00000         1.00000         1.00000         1.00000         1.00000         1.00000         1.00000         1.00000    
   2      1.00000         1.00000         1.00000         1.00000         1.00000         1.00000         1.00000         1.00000         1.00000         1.00000    
   3      1.00000         1.00000         1.00000         1.00000         1.00000         1.00000         1.00000         1.00000         1.00000         1.00000    
   4      1.00000         1.00000         1.00000         1.00000         1.00000         1.00000         1.00000         1.00000         1.00000         1.00000    
   5      1.00000         1.00000         1.00000         1.00000         1.00000         1.00000         1.00000         1.00000         1.00000         1.00000    
   6      1.00000         1.00000         1.00000         1.00000         1.00000         1.00000         1.00000         1.00000         1.00000         1.00000    
   7      1.00000         1.00000         1.00000         1.00000         1.00000         1.00000         1.00000         1.00000         1.00000         1.00000    
   8      1.00000         1.00000         1.00000         1.00000         1.00000         1.00000         1.00000         1.00000         1.00000         1.00000    
   9      1.00000         1.00000         1.00000         1.00000         1.00000         1.00000         1.00000         1.00000         1.00000         1.00000    
  10      1.00000         1.00000         1.00000         1.00000         1.00000         1.00000         1.00000         1.00000         1.00000         1.00000    
  11      1.00000         1.00000         1.00000         1.00000         1.00000         1.00000         1.00000         1.00000         1.00000         1.00000    
  12      1.00000         1.00000         1.00000         1.00000         1.00000         1.00000         1.00000         1.00000         1.00000         1.00000    
  13      1.00000         1.00000         1.00000         1.00000         1.00000         1.00000         1.00000         1.00000         1.00000         1.00000    
  14      1.00000         1.00000         1.00000         1.00000         1.00000         1.00000         1.00000         1.00000         1.00000         1.00000    
  15      1.00000         1.00000         1.00000         1.00000         1.00000         1.00000         1.00000         1.00000         1.00000         1.00000    
1
  CONCENTRATION IN LAYER   3 AT END OF TIME STEP   3 IN STRESS PERIOD    2
  ---------------------------------------------------------------------------

                1               2               3               4               5               6               7               8               9              10
 ................................................................................................................................................................
   1      1.00000         1.00000         1.00000         1.00000         1.00000         1.00000         1.00000         1.00000         1.00000         1.00000    
   2      1.00000         1.00000         1.00000         1.00000         1.00000         1.00000         1.00000         1.00000         1.00000         1.00000    
   3      1.00000         1.00000         1.00000         1.00000         1.00000         1.00000         1.00000         1.00000         1.00000         1.00000    
   4      1.00000         1.00000         1.00000         1.00000         1.00000         1.00000         1.00000         1.00000         1.00000         1.00000    
   5      1.00000         1.00000         1.00000         1.00000         1.00000         1.00000         1.00000         1.00000         1.00000         1.00000    
   6      1.00000         1.00000         1.00000         1.00000         1.00000         1.00000         1.00000         1.00000         1.00000         1.00000    
   7      1.00000         1.00000         1.00000         1.00000         1.00000         1.00000         1.00000         1.00000         1.00000         1.00000    
   8      1.00000         1.00000         1.00000         1.00000         1.00000         1.00000         1.00000         1.00000         1.00000         1.00000    
   9      1.00000         1.00000         1.00000         1.00000         1.00000         1.00000         1.00000         1.00000         1.00000         1.00000    
  10      1.00000         1.00000         1.00000         1.00000         1.00000         1.00000         1.00000         1.00000         1.00000         1.00000    
  11      1.00000         1.00000         1.00000         1.00000         1.00000         1.00000         1.00000         1.00000         1.00000         1.00000    
  12      1.00000         1.00000         1.00000         1.00000         1.00000         1.00000         1.00000         1.00000         1.00000         1.00000    
  13      1.00000         1.00000         1.00000         1.00000         1.00000         1.00000         1.00000         1.00000         1.00000         1.00000    
  14      1.00000         1.00000         1.00000         1.00000         1.00000         1.00000         1.00000         1.00000         1.00000         1.00000    
  15      1.00000         1.00000         1.00000         1.00000         1.00000         1.00000         1.00000         1.00000         1.00000         1.00000    

 CONCENTRATION WILL BE SAVED ON UNIT 1030 AT END OF TIME STEP    3, STRESS PERIOD    2


  MASS BUDGET FOR ENTIRE MODEL AT END OF TIME STEP    3, STRESS PERIOD   2
  ---------------------------------------------------------------------------------------------------

     CUMULATIVE MASS      M       RATES FOR THIS TIME STEP      M/T          PACKAGE NAME    
     ------------------                 ------------------------                     ----------------

           IN:                                      IN:
           ---                                      ---
     STORAGE-AQUEOUS =           2.5631       STORAGE-AQUEOUS =           2.0475     MST                              
                 RIV =           0.0000                   RIV =           0.0000     SSM_RIV-1                        
                 CHD =           0.0000                   CHD =           0.0000     SSM_CHD-1                        
                 CNC =           1.0729                   CNC =           0.8524     CNC_0                            

            TOTAL IN =           3.6360              TOTAL IN =           2.8999

          OUT:                                     OUT:
          ----                                     ----
     STORAGE-AQUEOUS =           1.1318       STORAGE-AQUEOUS =           0.8965     MST                              
                 RIV =           0.0000                   RIV =           0.0000     SSM_RIV-1                        
                 CHD =           2.4074                   CHD =           1.9259     SSM_CHD-1                        
                 CNC =       9.6799E-02                   CNC =       7.7439E-02     CNC_0                            

           TOTAL OUT =           3.6360             TOTAL OUT =           2.8999

            IN - OUT =      -3.9972E-10              IN - OUT =      -7.6411E-10

 PERCENT DISCREPANCY =          -0.00     PERCENT DISCREPANCY =          -0.00




         TIME SUMMARY AT END OF TIME STEP    3 IN STRESS PERIOD    2
                    SECONDS     MINUTES      HOURS       DAYS        YEARS
                    -----------------------------------------------------------
   TIME STEP LENGTH  7200.0      120.00      2.0000     8.33333E-02 2.28154E-04
 STRESS PERIOD TIME  21600.      360.00      6.0000     0.25000     6.84463E-04
         TOTAL TIME 1.08000E+05  1800.0      30.000      1.2500     3.42231E-03


end timestep


start timestep kper="2" kstp="4" mode="normal"

 UBDSV1 SAVING  STORAGE-AQUEOUS ON UNIT   1029 AT TIME STEP      4, STRESS PERIOD      2
 UBDSV1 SAVING     FLOW-JA-FACE ON UNIT   1029 AT TIME STEP      4, STRESS PERIOD      2
 UBDSV06 SAVING  SOURCE-SINK MIX IN MODEL GWT_RIVERBASE    PACKAGE GWT_RIVERBASE   CONNECTED TO MODEL GWT_RIVERBASE    PACKAGE SSM              ON UNIT   1029 AT TIME STEP      4, STRESS PERIOD      2
 UBDSV06 SAVING              CNC IN MODEL GWT_RIVERBASE    PACKAGE GWT_RIVERBASE   CONNECTED TO MODEL GWT_RIVERBASE    PACKAGE CNC_0            ON UNIT   1029 AT TIME STEP      4, STRESS PERIOD      2
1
  CONCENTRATION IN LAYER   1 AT END OF TIME STEP   4 IN STRESS PERIOD    2
  ---------------------------------------------------------------------------

                1               2               3               4               5               6               7               8               9              10
 ................................................................................................................................................................
   1      1.00000         1.00000         1.00000         1.00000         1.00000         1.00000         1.00000         1.00000         1.00000         1.00000    
   2     0.999997         1.00000        0.999997         1.00000         1.00000         1.00000         1.00000         1.00000         1.00000         1.00000    
   3      1.00000        0.999997         1.00000         1.00000         1.00000         1.00000         1.00000         1.00000         1.00000         1.00000    
   4      1.00000         1.00000        0.999997         1.00000         1.00000         1.00000         1.00000         1.00000         1.00000         1.00000    
   5      1.00000         1.00000         1.00000        0.999997        0.999997         1.00000         1.00000         1.00000         1.00000         1.00000    
   6      1.00000         10.0000         1.00000        0.999997         1.00000        0.999997         1.00000         1.00000         1.00000         1.00000    
   7      1.00000         10.0000         1.00000         1.00000         1.00000         1.00000        0.999997         1.00000         1.00000         1.00000    
   8      1.00000         1.00000         1.00000         1.00000         1.00000         1.00000         1.00000        0.999996        0.999996         1.00000    
   9      1.00000         1.00000         1.00000         1.00000         1.00000         1.00000         1.00000        0.999996         1.00000         1.00000    
  10      1.00000         1.00000         1.00000         1.00000         1.00000         1.00000         1.00000         1.00000         1.00000         1.00000    
  11      1.00000         1.00000         1.00000         1.00000         1.00000         1.00000         1.00000         1.00000         1.00000         1.00000    
  12      1.00000         1.00000         1.00000         1.00000         1.00000         1.00000         1.00000         1.00000         1.00000         1.00000    
  13      1.00000         1.00000         1.00000         1.00000         1.00000         1.00000         1.00000         1.00000         1.00000         1.00000    
  14      1.00000         1.00000         1.00000         1.00000         1.00000         1.00000         1.00000         1.00000         1.00000         1.00000    
  15      1.00000         1.00000         1.00000         1.00000         1.00000         1.00000         1.00000         1.00000         1.00000         1.00000    
1
  CONCENTRATION IN LAYER   2 AT END OF TIME STEP   4 IN STRESS PERIOD    2
  ---------------------------------------------------------------------------

                1               2               3               4               5               6               7               8               9              10
 ................................................................................................................................................................
   1      1.00000         1.00000         1.00000         1.00000         1.00000         1.00000         1.00000         1.00000         1.00000         1.00000    
   2      1.00000         1.00000         1.00000         1.00000         1.00000         1.00000         1.00000         1.00000         1.00000         1.00000    
   3      1.00000         1.00000         1.00000         1.00000         1.00000         1.00000         1.00000         1.00000         1.00000         1.00000    
   4      1.00000         1.00000         1.00000         1.00000         1.00000         1.00000         1.00000         1.00000         1.00000         1.00000    
   5      1.00000         1.00000         1.00000         1.00000         1.00000         1.00000         1.00000         1.00000         1.00000         1.00000    
   6      1.00000         1.00000         1.00000         1.00000         1.00000         1.00000         1.00000         1.00000         1.00000         1.00000    
   7      1.00000         1.00000         1.00000         1.00000         1.00000         1.00000         1.00000         1.00000         1.00000         1.00000    
   8      1.00000         1.00000         1.00000         1.00000         1.00000         1.00000         1.00000         1.00000         1.00000         1.00000    
   9      1.00000         1.00000         1.00000         1.00000         1.00000         1.00000         1.00000         1.00000         1.00000         1.00000    
  10      1.00000         1.00000         1.00000         1.00000         1.00000         1.00000         1.00000         1.00000         1.00000         1.00000    
  11      1.00000         1.00000         1.00000         1.00000         1.00000         1.00000         1.00000         1.00000         1.00000         1.00000    
  12      1.00000         1.00000         1.00000         1.00000         1.00000         1.00000         1.00000         1.00000         1.00000         1.00000    
  13      1.00000         1.00000         1.00000         1.00000         1.00000         1.00000         1.00000         1.00000         1.00000         1.00000    
  14      1.00000         1.00000         1.00000         1.00000         1.00000         1.00000         1.00000         1.00000         1.00000         1.00000    
  15      1.00000         1.00000         1.00000         1.00000         1.00000         1.00000         1.00000         1.00000         1.00000         1.00000    
1
  CONCENTRATION IN LAYER   3 AT END OF TIME STEP   4 IN STRESS PERIOD    2
  ---------------------------------------------------------------------------

                1               2               3               4               5               6               7               8               9              10
 ................................................................................................................................................................
   1      1.00000         1.00000         1.00000         1.00000         1.00000         1.00000         1.00000         1.00000         1.00000         1.00000    
   2      1.00000         1.00000         1.00000         1.00000         1.00000         1.00000         1.00000         1.00000         1.00000         1.00000    
   3      1.00000         1.00000         1.00000         1.00000         1.00000         1.00000         1.00000         1.00000         1.00000         1.00000    
   4      1.00000         1.00000         1.00000         1.00000         1.00000         1.00000         1.00000         1.00000         1.00000         1.00000    
   5      1.00000         1.00000         1.00000         1.00000         1.00000         1.00000         1.00000         1.00000         1.00000         1.00000    
   6      1.00000         1.00000         1.00000         1.00000         1.00000         1.00000         1.00000         1.00000         1.00000         1.00000    
   7      1.00000         1.00000         1.00000         1.00000         1.00000         1.00000         1.00000         1.00000         1.00000         1.00000    
   8      1.00000         1.00000         1.00000         1.00000         1.00000         1.00000         1.00000         1.00000         1.00000         1.00000    
   9      1.00000         1.00000         1.00000         1.00000         1.00000         1.00000         1.00000         1.00000         1.00000         1.00000    
  10      1.00000         1.00000         1.00000         1.00000         1.00000         1.00000         1.00000         1.00000         1.00000         1.00000    
  11      1.00000         1.00000         1.00000         1.00000         1.00000         1.00000         1.00000         1.00000         1.00000         1.00000    
  12      1.00000         1.00000         1.00000         1.00000         1.00000         1.00000         1.00000         1.00000         1.00000         1.00000    
  13      1.00000         1.00000         1.00000         1.00000         1.00000         1.00000         1.00000         1.00000         1.00000         1.00000    
  14      1.00000         1.00000         1.00000         1.00000         1.00000         1.00000         1.00000         1.00000         1.00000         1.00000    
  15      1.00000         1.00000         1.00000         1.00000         1.00000         1.00000         1.00000         1.00000         1.00000         1.00000    

 CONCENTRATION WILL BE SAVED ON UNIT 1030 AT END OF TIME STEP    4, STRESS PERIOD    2


  MASS BUDGET FOR ENTIRE MODEL AT END OF TIME STEP    4, STRESS PERIOD   2
  ---------------------------------------------------------------------------------------------------

     CUMULATIVE MASS      M       RATES FOR THIS TIME STEP      M/T          PACKAGE NAME    
     ------------------                 ------------------------                     ----------------

           IN:                                      IN:
           ---                                      ---
     STORAGE-AQUEOUS =           2.7337       STORAGE-AQUEOUS =           2.0475     MST                              
                 RIV =           0.0000                   RIV =           0.0000     SSM_RIV-1                        
                 CHD =           0.0000                   CHD =           0.0000     SSM_CHD-1                        
                 CNC =           1.1440                   CNC =           0.8524     CNC_0                            

            TOTAL IN =           3.8776              TOTAL IN =           2.8999

          OUT:                                     OUT:
          ----                                     ----
     STORAGE-AQUEOUS =           1.2065       STORAGE-AQUEOUS =           0.8965     MST                              
                 RIV =           0.0000                   RIV =           0.0000     SSM_RIV-1                        
                 CHD =           2.5679                   CHD =           1.9259     SSM_CHD-1                        
                 CNC =           0.1033                   CNC =       7.7439E-02     CNC_0                            

           TOTAL OUT =           3.8776             TOTAL OUT =           2.8999

            IN - OUT =      -3.2218E-10              IN - OUT =       9.3053E-10

 PERCENT DISCREPANCY =          -0.00     PERCENT DISCREPANCY =           0.00




         TIME SUMMARY AT END OF TIME STEP    4 IN STRESS PERIOD    2
                    SECONDS     MINUTES      HOURS       DAYS        YEARS
                    -----------------------------------------------------------
   TIME STEP LENGTH  7200.0      120.00      2.0000     8.33333E-02 2.28154E-04
 STRESS PERIOD TIME  28800.      480.00      8.0000     0.33333     9.12617E-04
         TOTAL TIME 1.15200E+05  1920.0      32.000      1.3333     3.65047E-03


end timestep


start timestep kper="2" kstp="5" mode="normal"

 UBDSV1 SAVING  STORAGE-AQUEOUS ON UNIT   1029 AT TIME STEP      5, STRESS PERIOD      2
 UBDSV1 SAVING     FLOW-JA-FACE ON UNIT   1029 AT TIME STEP      5, STRESS PERIOD      2
 UBDSV06 SAVING  SOURCE-SINK MIX IN MODEL GWT_RIVERBASE    PACKAGE GWT_RIVERBASE   CONNECTED TO MODEL GWT_RIVERBASE    PACKAGE SSM              ON UNIT   1029 AT TIME STEP      5, STRESS PERIOD      2
 UBDSV06 SAVING              CNC IN MODEL GWT_RIVERBASE    PACKAGE GWT_RIVERBASE   CONNECTED TO MODEL GWT_RIVERBASE    PACKAGE CNC_0            ON UNIT   1029 AT TIME STEP      5, STRESS PERIOD      2
1
  CONCENTRATION IN LAYER   1 AT END OF TIME STEP   5 IN STRESS PERIOD    2
  ---------------------------------------------------------------------------

                1               2               3               4               5               6               7               8               9              10
 ................................................................................................................................................................
   1      1.00000         1.00000         1.00000         1.00000         1.00000         1.00000         1.00000         1.00000         1.00000         1.00000    
   2     0.999997         1.00000        0.999997         1.00000         1.00000         1.00000         1.00000         1.00000         1.00000         1.00000    
   3      1.00000        0.999997         1.00000         1.00000         1.00000         1.00000         1.00000         1.00000         1.00000         1.00000    
   4      1.00000         1.00000        0.999997         1.00000         1.00000         1.00000         1.00000         1.00000         1.00000         1.00000    
   5      1.00000         1.00000         1.00000        0.999997        0.999997         1.00000         1.00000         1.00000         1.00000         1.00000    
   6      1.00000         10.0000         1.00000        0.999997         1.00000        0.999996         1.00000         1.00000         1.00000         1.00000    
   7      1.00000         10.0000         1.00000         1.00000         1.00000         1.00000        0.999996         1.00000         1.00000         1.00000    
   8      1.00000         1.00000         1.00000         1.00000         1.00000         1.00000         1.00000        0.999996        0.999996         1.00000    
   9      1.00000         1.00000         1.00000         1.00000         1.00000         1.00000         1.00000        0.999996         1.00000         1.00000    
  10      1.00000         1.00000         1.00000         1.00000         1.00000         1.00000         1.00000         1.00000         1.00000         1.00000    
  11      1.00000         1.00000         1.00000         1.00000         1.00000         1.00000         1.00000         1.00000         1.00000         1.00000    
  12      1.00000         1.00000         1.00000         1.00000         1.00000         1.00000         1.00000         1.00000         1.00000         1.00000    
  13      1.00000         1.00000         1.00000         1.00000         1.00000         1.00000         1.00000         1.00000         1.00000         1.00000    
  14      1.00000         1.00000         1.00000         1.00000         1.00000         1.00000         1.00000         1.00000         1.00000         1.00000    
  15      1.00000         1.00000         1.00000         1.00000         1.00000         1.00000         1.00000         1.00000         1.00000         1.00000    
1
  CONCENTRATION IN LAYER   2 AT END OF TIME STEP   5 IN STRESS PERIOD    2
  ---------------------------------------------------------------------------

                1               2               3               4               5               6               7               8               9              10
 ................................................................................................................................................................
   1      1.00000         1.00000         1.00000         1.00000         1.00000         1.00000         1.00000         1.00000         1.00000         1.00000    
   2      1.00000         1.00000         1.00000         1.00000         1.00000         1.00000         1.00000         1.00000         1.00000         1.00000    
   3      1.00000         1.00000         1.00000         1.00000         1.00000         1.00000         1.00000         1.00000         1.00000         1.00000    
   4      1.00000         1.00000         1.00000         1.00000         1.00000         1.00000         1.00000         1.00000         1.00000         1.00000    
   5      1.00000         1.00000         1.00000         1.00000         1.00000         1.00000         1.00000         1.00000         1.00000         1.00000    
   6      1.00000         1.00000         1.00000         1.00000         1.00000         1.00000         1.00000         1.00000         1.00000         1.00000    
   7      1.00000         1.00000         1.00000         1.00000         1.00000         1.00000         1.00000         1.00000         1.00000         1.00000    
   8      1.00000         1.00000         1.00000         1.00000         1.00000         1.00000         1.00000         1.00000         1.00000         1.00000    
   9      1.00000         1.00000         1.00000         1.00000         1.00000         1.00000         1.00000         1.00000         1.00000         1.00000    
  10      1.00000         1.00000         1.00000         1.00000         1.00000         1.00000         1.00000         1.00000         1.00000         1.00000    
  11      1.00000         1.00000         1.00000         1.00000         1.00000         1.00000         1.00000         1.00000         1.00000         1.00000    
  12      1.00000         1.00000         1.00000         1.00000         1.00000         1.00000         1.00000         1.00000         1.00000         1.00000    
  13      1.00000         1.00000         1.00000         1.00000         1.00000         1.00000         1.00000         1.00000         1.00000         1.00000    
  14      1.00000         1.00000         1.00000         1.00000         1.00000         1.00000         1.00000         1.00000         1.00000         1.00000    
  15      1.00000         1.00000         1.00000         1.00000         1.00000         1.00000         1.00000         1.00000         1.00000         1.00000    
1
  CONCENTRATION IN LAYER   3 AT END OF TIME STEP   5 IN STRESS PERIOD    2
  ---------------------------------------------------------------------------

                1               2               3               4               5               6               7               8               9              10
 ................................................................................................................................................................
   1      1.00000         1.00000         1.00000         1.00000         1.00000         1.00000         1.00000         1.00000         1.00000         1.00000    
   2      1.00000         1.00000         1.00000         1.00000         1.00000         1.00000         1.00000         1.00000         1.00000         1.00000    
   3      1.00000         1.00000         1.00000         1.00000         1.00000         1.00000         1.00000         1.00000         1.00000         1.00000    
   4      1.00000         1.00000         1.00000         1.00000         1.00000         1.00000         1.00000         1.00000         1.00000         1.00000    
   5      1.00000         1.00000         1.00000         1.00000         1.00000         1.00000         1.00000         1.00000         1.00000         1.00000    
   6      1.00000         1.00000         1.00000         1.00000         1.00000         1.00000         1.00000         1.00000         1.00000         1.00000    
   7      1.00000         1.00000         1.00000         1.00000         1.00000         1.00000         1.00000         1.00000         1.00000         1.00000    
   8      1.00000         1.00000         1.00000         1.00000         1.00000         1.00000         1.00000         1.00000         1.00000         1.00000    
   9      1.00000         1.00000         1.00000         1.00000         1.00000         1.00000         1.00000         1.00000         1.00000         1.00000    
  10      1.00000         1.00000         1.00000         1.00000         1.00000         1.00000         1.00000         1.00000         1.00000         1.00000    
  11      1.00000         1.00000         1.00000         1.00000         1.00000         1.00000         1.00000         1.00000         1.00000         1.00000    
  12      1.00000         1.00000         1.00000         1.00000         1.00000         1.00000         1.00000         1.00000         1.00000         1.00000    
  13      1.00000         1.00000         1.00000         1.00000         1.00000         1.00000         1.00000         1.00000         1.00000         1.00000    
  14      1.00000         1.00000         1.00000         1.00000         1.00000         1.00000         1.00000         1.00000         1.00000         1.00000    
  15      1.00000         1.00000         1.00000         1.00000         1.00000         1.00000         1.00000         1.00000         1.00000         1.00000    

 CONCENTRATION WILL BE SAVED ON UNIT 1030 AT END OF TIME STEP    5, STRESS PERIOD    2


  MASS BUDGET FOR ENTIRE MODEL AT END OF TIME STEP    5, STRESS PERIOD   2
  ---------------------------------------------------------------------------------------------------

     CUMULATIVE MASS      M       RATES FOR THIS TIME STEP      M/T          PACKAGE NAME    
     ------------------                 ------------------------                     ----------------

           IN:                                      IN:
           ---                                      ---
     STORAGE-AQUEOUS =           2.9043       STORAGE-AQUEOUS =           2.0475     MST                              
                 RIV =           0.0000                   RIV =           0.0000     SSM_RIV-1                        
                 CHD =           0.0000                   CHD =           0.0000     SSM_CHD-1                        
                 CNC =           1.2150                   CNC =           0.8524     CNC_0                            

            TOTAL IN =           4.1193              TOTAL IN =           2.8999

          OUT:                                     OUT:
          ----                                     ----
     STORAGE-AQUEOUS =           1.2812       STORAGE-AQUEOUS =           0.8965     MST                              
                 RIV =           0.0000                   RIV =           0.0000     SSM_RIV-1                        
                 CHD =           2.7283                   CHD =           1.9259     SSM_CHD-1                        
                 CNC =           0.1097                   CNC =       7.7439E-02     CNC_0                            

           TOTAL OUT =           4.1193             TOTAL OUT =           2.8999

            IN - OUT =      -2.7967E-10              IN - OUT =       5.1002E-10

 PERCENT DISCREPANCY =          -0.00     PERCENT DISCREPANCY =           0.00




         TIME SUMMARY AT END OF TIME STEP    5 IN STRESS PERIOD    2
                    SECONDS     MINUTES      HOURS       DAYS        YEARS
                    -----------------------------------------------------------
   TIME STEP LENGTH  7200.0      120.00      2.0000     8.33333E-02 2.28154E-04
 STRESS PERIOD TIME  36000.      600.00      10.000     0.41667     1.14077E-03
         TOTAL TIME 1.22400E+05  2040.0      34.000      1.4167     3.87862E-03


end timestep


start timestep kper="2" kstp="6" mode="normal"

 UBDSV1 SAVING  STORAGE-AQUEOUS ON UNIT   1029 AT TIME STEP      6, STRESS PERIOD      2
 UBDSV1 SAVING     FLOW-JA-FACE ON UNIT   1029 AT TIME STEP      6, STRESS PERIOD      2
 UBDSV06 SAVING  SOURCE-SINK MIX IN MODEL GWT_RIVERBASE    PACKAGE GWT_RIVERBASE   CONNECTED TO MODEL GWT_RIVERBASE    PACKAGE SSM              ON UNIT   1029 AT TIME STEP      6, STRESS PERIOD      2
 UBDSV06 SAVING              CNC IN MODEL GWT_RIVERBASE    PACKAGE GWT_RIVERBASE   CONNECTED TO MODEL GWT_RIVERBASE    PACKAGE CNC_0            ON UNIT   1029 AT TIME STEP      6, STRESS PERIOD      2
1
  CONCENTRATION IN LAYER   1 AT END OF TIME STEP   6 IN STRESS PERIOD    2
  ---------------------------------------------------------------------------

                1               2               3               4               5               6               7               8               9              10
 ................................................................................................................................................................
[...]
   2      1.00000         1.00000         1.00000         1.00000         1.00000         1.00000         1.00000         1.00000         1.00000         1.00000    
   3      1.00000         1.00000         1.00000         1.00000         1.00000         1.00000         1.00000         1.00000         1.00000         1.00000    
   4      1.00000         1.00000         1.00000         1.00000         1.00000         1.00000         1.00000         1.00000         1.00000         1.00000    
   5      1.00000         1.00000         1.00000         1.00000         1.00000         1.00000         1.00000         1.00000         1.00000         1.00000    
   6      1.00000         1.00001         1.00000         1.00000         1.00000         1.00000         1.00000         1.00000         1.00000         1.00000    
   7      1.00000         1.00000         1.00000         1.00000         1.00000         1.00000         1.00000         1.00000         1.00000         1.00000    
   8      1.00000         1.00000         1.00000         1.00000         1.00000         1.00000         1.00000         1.00000         1.00000         1.00000    
   9      1.00000         1.00000         1.00000         1.00000         1.00000         1.00000         1.00000         1.00000         1.00000         1.00000    
  10      1.00000         1.00000         1.00000         1.00000         1.00000         1.00000         1.00000         1.00000         1.00000         1.00000    
  11      1.00000         1.00000         1.00000         1.00000         1.00000         1.00000         1.00000         1.00000         1.00000         1.00000    
  12      1.00000         1.00000         1.00000         1.00000         1.00000         1.00000         1.00000         1.00000         1.00000         1.00000    
  13      1.00000         1.00000         1.00000         1.00000         1.00000         1.00000         1.00000         1.00000         1.00000         1.00000    
  14      1.00000         1.00000         1.00000         1.00000         1.00000         1.00000         1.00000         1.00000         1.00000         1.00000    
  15      1.00000         1.00000         1.00000         1.00000         1.00000         1.00000         1.00000         1.00000         1.00000         1.00000    
1
  CONCENTRATION IN LAYER   3 AT END OF TIME STEP 119 IN STRESS PERIOD    2
  ---------------------------------------------------------------------------

                1               2               3               4               5               6               7               8               9              10
 ................................................................................................................................................................
   1      1.00000         1.00000         1.00000         1.00000         1.00000         1.00000         1.00000         1.00000         1.00000         1.00000    
   2      1.00000         1.00000         1.00000         1.00000         1.00000         1.00000         1.00000         1.00000         1.00000         1.00000    
   3      1.00000         1.00000         1.00000         1.00000         1.00000         1.00000         1.00000         1.00000         1.00000         1.00000    
   4      1.00000         1.00000         1.00000         1.00000         1.00000         1.00000         1.00000         1.00000         1.00000         1.00000    
   5      1.00000         1.00000         1.00000         1.00000         1.00000         1.00000         1.00000         1.00000         1.00000         1.00000    
   6      1.00000         1.00000         1.00000         1.00000         1.00000         1.00000         1.00000         1.00000         1.00000         1.00000    
   7      1.00000         1.00000         1.00000         1.00000         1.00000         1.00000         1.00000         1.00000         1.00000         1.00000    
   8      1.00000         1.00000         1.00000         1.00000         1.00000         1.00000         1.00000         1.00000         1.00000         1.00000    
   9      1.00000         1.00000         1.00000         1.00000         1.00000         1.00000         1.00000         1.00000         1.00000         1.00000    
  10      1.00000         1.00000         1.00000         1.00000         1.00000         1.00000         1.00000         1.00000         1.00000         1.00000    
  11      1.00000         1.00000         1.00000         1.00000         1.00000         1.00000         1.00000         1.00000         1.00000         1.00000    
  12      1.00000         1.00000         1.00000         1.00000         1.00000         1.00000         1.00000         1.00000         1.00000         1.00000    
  13      1.00000         1.00000         1.00000         1.00000         1.00000         1.00000         1.00000         1.00000         1.00000         1.00000    
  14      1.00000         1.00000         1.00000         1.00000         1.00000         1.00000         1.00000         1.00000         1.00000         1.00000    
  15      1.00000         1.00000         1.00000         1.00000         1.00000         1.00000         1.00000         1.00000         1.00000         1.00000    

 CONCENTRATION WILL BE SAVED ON UNIT 1030 AT END OF TIME STEP  119, STRESS PERIOD    2


  MASS BUDGET FOR ENTIRE MODEL AT END OF TIME STEP  119, STRESS PERIOD   2
  ---------------------------------------------------------------------------------------------------

     CUMULATIVE MASS      M       RATES FOR THIS TIME STEP      M/T          PACKAGE NAME    
     ------------------                 ------------------------                     ----------------

           IN:                                      IN:
           ---                                      ---
     STORAGE-AQUEOUS =          22.3553       STORAGE-AQUEOUS =           2.0474     MST                              
                 RIV =           0.0000                   RIV =           0.0000     SSM_RIV-1                        
                 CHD =           0.0000                   CHD =           0.0000     SSM_CHD-1                        
                 CNC =           9.3138                   CNC =           0.8526     CNC_0                            

            TOTAL IN =          31.6691              TOTAL IN =           2.9001

          OUT:                                     OUT:
          ----                                     ----
     STORAGE-AQUEOUS =           9.7988       STORAGE-AQUEOUS =           0.8967     MST                              
                 RIV =           0.0000                   RIV =           0.0000     SSM_RIV-1                        
                 CHD =          21.0249                   CHD =           1.9260     SSM_CHD-1                        
                 CNC =           0.8453                   CNC =       7.7428E-02     CNC_0                            

           TOTAL OUT =          31.6691             TOTAL OUT =           2.9001

            IN - OUT =       3.3161E-09              IN - OUT =       1.3301E-09

 PERCENT DISCREPANCY =           0.00     PERCENT DISCREPANCY =           0.00




         TIME SUMMARY AT END OF TIME STEP  119 IN STRESS PERIOD    2
                    SECONDS     MINUTES      HOURS       DAYS        YEARS
                    -----------------------------------------------------------
   TIME STEP LENGTH  7200.0      120.00      2.0000     8.33333E-02 2.28154E-04
 STRESS PERIOD TIME 8.56800E+05  14280.      238.00      9.9167     2.71504E-02
         TOTAL TIME 9.43200E+05  15720.      262.00      10.917     2.98882E-02


end timestep


start timestep kper="2" kstp="120" mode="normal"

 UBDSV1 SAVING  STORAGE-AQUEOUS ON UNIT   1029 AT TIME STEP    120, STRESS PERIOD      2
 UBDSV1 SAVING     FLOW-JA-FACE ON UNIT   1029 AT TIME STEP    120, STRESS PERIOD      2
 UBDSV06 SAVING  SOURCE-SINK MIX IN MODEL GWT_RIVERBASE    PACKAGE GWT_RIVERBASE   CONNECTED TO MODEL GWT_RIVERBASE    PACKAGE SSM              ON UNIT   1029 AT TIME STEP    120, STRESS PERIOD      2
 UBDSV06 SAVING              CNC IN MODEL GWT_RIVERBASE    PACKAGE GWT_RIVERBASE   CONNECTED TO MODEL GWT_RIVERBASE    PACKAGE CNC_0            ON UNIT   1029 AT TIME STEP    120, STRESS PERIOD      2
1
  CONCENTRATION IN LAYER   1 AT END OF TIME STEP 120 IN STRESS PERIOD    2
  ---------------------------------------------------------------------------

                1               2               3               4               5               6               7               8               9              10
 ................................................................................................................................................................
   1      1.00000         1.00000         1.00000         1.00000         1.00000         1.00000         1.00000         1.00000         1.00000         1.00000    
   2     0.999977         1.00000        0.999976         1.00000         1.00000         1.00000         1.00000         1.00000         1.00000         1.00000    
   3      1.00000        0.999976         1.00000         1.00000         1.00000         1.00000         1.00000         1.00000         1.00000         1.00000    
   4      1.00000         1.00000        0.999975         1.00000         1.00000         1.00000         1.00000         1.00000         1.00000         1.00000    
   5      1.00000         1.00003         1.00000        0.999974        0.999973         1.00000         1.00000         1.00000         1.00000         1.00000    
   6      1.00004         10.0000         1.00000        0.999974         1.00000        0.999972         1.00000         1.00000         1.00000         1.00000    
   7      1.00002         10.0000         1.00000         1.00000         1.00000         1.00000        0.999972         1.00000         1.00000         1.00000    
   8      1.00000         1.00003         1.00000         1.00000         1.00000         1.00000         1.00000        0.999971        0.999970         1.00000    
   9      1.00000         1.00000         1.00000         1.00000         1.00000         1.00000         1.00000        0.999970         1.00000         1.00000    
  10      1.00000         1.00000         1.00000         1.00000         1.00000         1.00000         1.00000         1.00000         1.00000         1.00000    
  11      1.00000         1.00000         1.00000         1.00000         1.00000         1.00000         1.00000         1.00000         1.00000         1.00000    
  12      1.00000         1.00000         1.00000         1.00000         1.00000         1.00000         1.00000         1.00000         1.00000         1.00000    
  13      1.00000         1.00000         1.00000         1.00000         1.00000         1.00000         1.00000         1.00000         1.00000         1.00000    
  14      1.00000         1.00000         1.00000         1.00000         1.00000         1.00000         1.00000         1.00000         1.00000         1.00000    
  15      1.00000         1.00000         1.00000         1.00000         1.00000         1.00000         1.00000         1.00000         1.00000         1.00000    
1
  CONCENTRATION IN LAYER   2 AT END OF TIME STEP 120 IN STRESS PERIOD    2
  ---------------------------------------------------------------------------

                1               2               3               4               5               6               7               8               9              10
 ................................................................................................................................................................
   1      1.00000         1.00000         1.00000         1.00000         1.00000         1.00000         1.00000         1.00000         1.00000         1.00000    
   2      1.00000         1.00000         1.00000         1.00000         1.00000         1.00000         1.00000         1.00000         1.00000         1.00000    
   3      1.00000         1.00000         1.00000         1.00000         1.00000         1.00000         1.00000         1.00000         1.00000         1.00000    
   4      1.00000         1.00000         1.00000         1.00000         1.00000         1.00000         1.00000         1.00000         1.00000         1.00000    
   5      1.00000         1.00000         1.00000         1.00000         1.00000         1.00000         1.00000         1.00000         1.00000         1.00000    
   6      1.00000         1.00001         1.00000         1.00000         1.00000         1.00000         1.00000         1.00000         1.00000         1.00000    
   7      1.00000         1.00000         1.00000         1.00000         1.00000         1.00000         1.00000         1.00000         1.00000         1.00000    
   8      1.00000         1.00000         1.00000         1.00000         1.00000         1.00000         1.00000         1.00000         1.00000         1.00000    
   9      1.00000         1.00000         1.00000         1.00000         1.00000         1.00000         1.00000         1.00000         1.00000         1.00000    
  10      1.00000         1.00000         1.00000         1.00000         1.00000         1.00000         1.00000         1.00000         1.00000         1.00000    
  11      1.00000         1.00000         1.00000         1.00000         1.00000         1.00000         1.00000         1.00000         1.00000         1.00000    
  12      1.00000         1.00000         1.00000         1.00000         1.00000         1.00000         1.00000         1.00000         1.00000         1.00000    
  13      1.00000         1.00000         1.00000         1.00000         1.00000         1.00000         1.00000         1.00000         1.00000         1.00000    
  14      1.00000         1.00000         1.00000         1.00000         1.00000         1.00000         1.00000         1.00000         1.00000         1.00000    
  15      1.00000         1.00000         1.00000         1.00000         1.00000         1.00000         1.00000         1.00000         1.00000         1.00000    
1
  CONCENTRATION IN LAYER   3 AT END OF TIME STEP 120 IN STRESS PERIOD    2
  ---------------------------------------------------------------------------

                1               2               3               4               5               6               7               8               9              10
 ................................................................................................................................................................
   1      1.00000         1.00000         1.00000         1.00000         1.00000         1.00000         1.00000         1.00000         1.00000         1.00000    
   2      1.00000         1.00000         1.00000         1.00000         1.00000         1.00000         1.00000         1.00000         1.00000         1.00000    
   3      1.00000         1.00000         1.00000         1.00000         1.00000         1.00000         1.00000         1.00000         1.00000         1.00000    
   4      1.00000         1.00000         1.00000         1.00000         1.00000         1.00000         1.00000         1.00000         1.00000         1.00000    
   5      1.00000         1.00000         1.00000         1.00000         1.00000         1.00000         1.00000         1.00000         1.00000         1.00000    
   6      1.00000         1.00000         1.00000         1.00000         1.00000         1.00000         1.00000         1.00000         1.00000         1.00000    
   7      1.00000         1.00000         1.00000         1.00000         1.00000         1.00000         1.00000         1.00000         1.00000         1.00000    
   8      1.00000         1.00000         1.00000         1.00000         1.00000         1.00000         1.00000         1.00000         1.00000         1.00000    
   9      1.00000         1.00000         1.00000         1.00000         1.00000         1.00000         1.00000         1.00000         1.00000         1.00000    
  10      1.00000         1.00000         1.00000         1.00000         1.00000         1.00000         1.00000         1.00000         1.00000         1.00000    
  11      1.00000         1.00000         1.00000         1.00000         1.00000         1.00000         1.00000         1.00000         1.00000         1.00000    
  12      1.00000         1.00000         1.00000         1.00000         1.00000         1.00000         1.00000         1.00000         1.00000         1.00000    
  13      1.00000         1.00000         1.00000         1.00000         1.00000         1.00000         1.00000         1.00000         1.00000         1.00000    
  14      1.00000         1.00000         1.00000         1.00000         1.00000         1.00000         1.00000         1.00000         1.00000         1.00000    
  15      1.00000         1.00000         1.00000         1.00000         1.00000         1.00000         1.00000         1.00000         1.00000         1.00000    

 CONCENTRATION WILL BE SAVED ON UNIT 1030 AT END OF TIME STEP  120, STRESS PERIOD    2


  MASS BUDGET FOR ENTIRE MODEL AT END OF TIME STEP  120, STRESS PERIOD   2
  ---------------------------------------------------------------------------------------------------

     CUMULATIVE MASS      M       RATES FOR THIS TIME STEP      M/T          PACKAGE NAME    
     ------------------                 ------------------------                     ----------------

           IN:                                      IN:
           ---                                      ---
     STORAGE-AQUEOUS =          22.5259       STORAGE-AQUEOUS =           2.0474     MST                              
                 RIV =           0.0000                   RIV =           0.0000     SSM_RIV-1                        
                 CHD =           0.0000                   CHD =           0.0000     SSM_CHD-1                        
                 CNC =           9.3849                   CNC =           0.8526     CNC_0                            

            TOTAL IN =          31.9108              TOTAL IN =           2.9001

          OUT:                                     OUT:
          ----                                     ----
     STORAGE-AQUEOUS =           9.8736       STORAGE-AQUEOUS =           0.8967     MST                              
                 RIV =           0.0000                   RIV =           0.0000     SSM_RIV-1                        
                 CHD =          21.1854                   CHD =           1.9260     SSM_CHD-1                        
                 CNC =           0.8518                   CNC =       7.7428E-02     CNC_0                            

           TOTAL OUT =          31.9108             TOTAL OUT =           2.9001

            IN - OUT =       3.1960E-09              IN - OUT =      -1.4413E-09

 PERCENT DISCREPANCY =           0.00     PERCENT DISCREPANCY =          -0.00




         TIME SUMMARY AT END OF TIME STEP  120 IN STRESS PERIOD    2
                    SECONDS     MINUTES      HOURS       DAYS        YEARS
                    -----------------------------------------------------------
   TIME STEP LENGTH  7200.0      120.00      2.0000     8.33333E-02 2.28154E-04
 STRESS PERIOD TIME 8.64000E+05  14400.      240.00      10.000     2.73785E-02
         TOTAL TIME 9.50400E+05  15840.      264.00      11.000     3.01164E-02


end timestep


start timestep kper="3" kstp="1" mode="normal"


 OUTPUT CONTROL FOR STRESS PERIOD 3 IS REPEATED USING SETTINGS FROM A PREVIOUS STRESS PERIOD.
