                                   MODFLOW 6
                U.S. GEOLOGICAL SURVEY MODULAR HYDROLOGIC MODEL
                          GROUNDWATER FLOW MODEL (GWF)
                            VERSION 6.6.2 05/12/2025

   MODFLOW 6 compiled May 12 2025 12:42:18 with Intel(R) Fortran Intel(R) 64
   Compiler Classic for applications running on Intel(R) 64, Version 2021.7.0
                             Build 20220726_000000

This software has been approved for release by the U.S. Geological 
Survey (USGS). Although the software has been subjected to rigorous 
review, the USGS reserves the right to update the software as needed 
pursuant to further analysis and review. No warranty, expressed or 
implied, is made by the USGS or the U.S. Government as to the 
functionality of the software and related material nor shall the 
fact of release constitute any such warranty. Furthermore, the 
software is released on condition that neither the USGS nor the U.S. 
Government shall be held liable for any damages resulting from its 
authorized or unauthorized use. Also refer to the USGS Water 
Resources Software User Rights Notice for complete use, copyright, 
and distribution information.


As a work of the United States Government, this USGS product is 
in the public domain within the United States. You can copy, 
modify, distribute, and perform the work, even for commercial 
purposes, all without asking permission. Additionally, USGS 
waives copyright and related rights in the work worldwide 
through CC0 1.0 Universal Public Domain Dedication 
(https://creativecommons.org/publicdomain/zero/1.0/).

The following GNU Lesser General Public License (LGPL) libraries
are used in this USGS product:

    SPARSKIT version 2.0
      ilut, luson, and qsplit 
      (https://www-users.cse.umn.edu/~saad/software/SPARSKIT/)

    RCM - Reverse Cuthill McKee Ordering
      (https://people.math.sc.edu/Burkardt/f_src/rcm/rcm.html)

    BLAS - Basic Linear Algebra Subprograms Level 1
      (https://people.math.sc.edu/Burkardt/f_src/blas1_d/blas1_d.html)

    SPARSEKIT - Sparse Matrix Utility Package
      amux, dperm, dvperm, rperm, and cperm
      (https://people.sc.fsu.edu/~jburkardt/f77_src/sparsekit/sparsekit.html)

The following BSD-3 License libraries are used in this USGS product:

    Modern Fortran DAG Library
      Copyright (c) 2018, Jacob Williams
      All rights reserved.
      (https://github.com/jacobwilliams/daglib)

MODFLOW 6 compiler options: /Isrc\libmf6core.a.p /Isrc /I..\src
/Isrc\libmf6_external.a.p /MT /nologo /warn:general /warn:truncated_source
/stand:f18 /O2 /fpe:0 /heap-arrays:0 /traceback /fpp /Qdiag-disable:7416
/Qdiag-disable:7025 /Qdiag-disable:5268 /Qdiag-disable:10448
/Fdsrc\libmf6core.a.p\Utilities_compilerversion.F90.pdb
/module:src\libmf6core.a.p
/Fosrc/libmf6core.a.p/Utilities_compilerversion.F90.obj /c

System command used to initiate simulation:
"C:\Users\lucialabarca\re-run noteboks\pymf6-validation\.pixi\envs\default\python.EXE" system_well_control.py

MODFLOW was compiled using uniform precision.

Real Variables
  KIND: 8
  TINY (smallest non-zero value):    2.225074-308
  HUGE (largest value):    1.797693+308
  PRECISION: 15
  SIZE IN BITS: 64

Integer Variables
  KIND: 4
  HUGE (largest value): 2147483647
  SIZE IN BITS: 32

Long Integer Variables
  KIND: 8
  HUGE (largest value): 9223372036854775807
  SIZE IN BITS: 64

Logical Variables
  KIND: 4
  SIZE IN BITS: 32
 
 NAMEFILE OPTIONS:
    FLOWS WILL BE SAVED TO BUDGET FILE SPECIFIED IN OUTPUT CONTROL
 END NAMEFILE OPTIONS:

 DIS -- STRUCTURED GRID DISCRETIZATION PACKAGE, VERSION 2 : 3/27/2014 - INPUT READ FROM MEMPATH: __INPUT__/GWF_PUMPTREAT/DIS                       


 NPF -- NODE PROPERTY FLOW PACKAGE, VERSION 1, 3/30/2015 INPUT READ FROM MEMPATH: __INPUT__/GWF_PUMPTREAT/NPF                       


 IC -- Initial Conditions Package, Version 8, 3/28/2015 input read from mempath: __INPUT__/GWF_PUMPTREAT/IC                        


 Setting Discretization Options
 End Setting Discretization Options

 Setting Discretization Dimensions
    NLAY = 1
    NROW = 101
    NCOL = 101
 End Setting Discretization Dimensions

 Setting Discretization Griddata
    DELR set from input file
    DELC set from input file
    TOP set from input file
    BOTM set from input file
 End Setting Discretization Griddata

 Setting NPF Options
    Cell-by-cell flow information will be saved to binary file whenever ICBCFL is not zero.
    Specific discharge will be calculated at cell centers and written to DATA-SPDIS in budget file when requested.
 End Setting NPF Options

 Setting NPF Griddata
    ICELLTYPE set from input file
    K set from input file
    K33 set from input file
    K22 not provided.  Setting K22 = K.
 End Setting NPF Griddata


 WEL   -- WEL PACKAGE, VERSION 8, 2/22/2014 INPUT READ FROM MEMPATH: __INPUT__/GWF_PUMPTREAT/WEL-1                     

 PROCESSING WEL BASE OPTIONS
    FLOWS WILL BE SAVED TO BUDGET FILE SPECIFIED IN OUTPUT CONTROL
 END OF WEL BASE OPTIONS

 PROCESSING WEL OPTIONS
 END OF WEL OPTIONS

 PROCESSING WEL BASE DIMENSIONS
    MAXBOUND =       3
 END OF WEL BASE DIMENSIONS

 CHD   -- CHD PACKAGE, VERSION 8, 2/22/2014 INPUT READ FROM MEMPATH: __INPUT__/GWF_PUMPTREAT/CHD-1                     

 PROCESSING CHD BASE OPTIONS
    FLOWS WILL BE SAVED TO BUDGET FILE SPECIFIED IN OUTPUT CONTROL
 END OF CHD BASE OPTIONS

 PROCESSING CHD BASE DIMENSIONS
    MAXBOUND =     202
 END OF CHD BASE DIMENSIONS
    STRT set from input file

 STO -- STORAGE PACKAGE, VERSION 1, 5/19/2014 INPUT READ FROM MEMPATH: __INPUT__/GWF_PUMPTREAT/STO                       


 PROCESSING STORAGE OPTIONS
    CELL-BY-CELL FLOW INFORMATION WILL BE SAVED TO BINARY FILE WHENEVER ICBCFL IS NOT ZERO.
 END OF STORAGE OPTIONS
    BINARY GRID INFORMATION WILL BE WRITTEN TO:
      UNIT NUMBER: 1026
      FILE NAME: gwf_pumptreat.dis.grb

 OPENED gwf_pumptreat.dis.grb
 FILE TYPE:DATA(BINARY)   UNIT 1026   STATUS:REPLACE             
 FORMAT:UNFORMATTED            ACCESS:STREAM              
 ACTION:READWRITE           

      THE LAST TIME STEP WILL BE PRINTED
      THE LAST TIME STEP WILL BE PRINTED
 # File generated by Flopy version 3.9.3 on 07/21/2025 at 11:08:37.

 PROCESSING OC OPTIONS

    BUDGET INFORMATION WILL BE WRITTEN TO:
      UNIT NUMBER: 1027
      FILE NAME: gwf_pumptreat.bud

 OPENED gwf_pumptreat.bud
 FILE TYPE:DATA(BINARY)   UNIT 1027   STATUS:REPLACE             
 FORMAT:UNFORMATTED            ACCESS:STREAM              
 ACTION:READWRITE           

    HEAD INFORMATION WILL BE WRITTEN TO:
      UNIT NUMBER: 1028
      FILE NAME: gwf_pumptreat.hds

 OPENED gwf_pumptreat.hds
 FILE TYPE:DATA(BINARY)   UNIT 1028   STATUS:REPLACE             
 FORMAT:UNFORMATTED            ACCESS:STREAM              
 ACTION:READWRITE           

 END OF OC OPTIONS

start timestep kper="1" kstp="1" mode="normal"


 BEGIN READING OUTPUT CONTROL FOR STRESS PERIOD 1
      ALL TIME STEPS WILL BE SAVED
      ALL TIME STEPS WILL BE SAVED

 END READING OUTPUT CONTROL FOR STRESS PERIOD 1


 PROCESSING STORAGE PERIOD DATA
 END PROCESSING STORAGE PERIOD DATA


 STRESS PERIOD 1 IS STEADY-STATE

 UBDSV1 SAVING           STO-SS ON UNIT   1027 AT TIME STEP      1, STRESS PERIOD      1
 UBDSV1 SAVING           STO-SY ON UNIT   1027 AT TIME STEP      1, STRESS PERIOD      1
 UBDSV1 SAVING     FLOW-JA-FACE ON UNIT   1027 AT TIME STEP      1, STRESS PERIOD      1
 UBDSV06 SAVING       DATA-SPDIS IN MODEL GWF_PUMPTREAT    PACKAGE NPF             CONNECTED TO MODEL GWF_PUMPTREAT    PACKAGE NPF              ON UNIT   1027 AT TIME STEP      1, STRESS PERIOD      1
 UBDSV06 SAVING              WEL IN MODEL GWF_PUMPTREAT    PACKAGE GWF_PUMPTREAT   CONNECTED TO MODEL GWF_PUMPTREAT    PACKAGE WEL-1            ON UNIT   1027 AT TIME STEP      1, STRESS PERIOD      1
 UBDSV06 SAVING              CHD IN MODEL GWF_PUMPTREAT    PACKAGE GWF_PUMPTREAT   CONNECTED TO MODEL GWF_PUMPTREAT    PACKAGE CHD-1            ON UNIT   1027 AT TIME STEP      1, STRESS PERIOD      1

 HEAD WILL BE SAVED ON UNIT 1028 AT END OF TIME STEP    1, STRESS PERIOD    1


  VOLUME BUDGET FOR ENTIRE MODEL AT END OF TIME STEP    1, STRESS PERIOD   1
  ---------------------------------------------------------------------------------------------------

     CUMULATIVE VOLUME      L**3       RATES FOR THIS TIME STEP      L**3/T          PACKAGE NAME    
     ------------------                 ------------------------                     ----------------

           IN:                                      IN:
           ---                                      ---
              STO-SS =           0.0000                STO-SS =           0.0000     STORAGE                          
              STO-SY =           0.0000                STO-SY =           0.0000     STORAGE                          
                 WEL =           0.0000                   WEL =           0.0000     WEL-1                            
                 CHD =         149.4914                   CHD =         149.4914     CHD-1                            

            TOTAL IN =         149.4914              TOTAL IN =         149.4914

          OUT:                                     OUT:
          ----                                     ----
              STO-SS =           0.0000                STO-SS =           0.0000     STORAGE                          
              STO-SY =           0.0000                STO-SY =           0.0000     STORAGE                          
                 WEL =         150.0000                   WEL =         150.0000     WEL-1                            
                 CHD =           0.0000                   CHD =           0.0000     CHD-1                            

           TOTAL OUT =         150.0000             TOTAL OUT =         150.0000

            IN - OUT =          -0.5086              IN - OUT =          -0.5086

 PERCENT DISCREPANCY =          -0.34     PERCENT DISCREPANCY =          -0.34




         TIME SUMMARY AT END OF TIME STEP    1 IN STRESS PERIOD    1
                    SECONDS     MINUTES      HOURS       DAYS        YEARS
                    -----------------------------------------------------------
   TIME STEP LENGTH  86400.      1440.0      24.000      1.0000     2.73785E-03
 STRESS PERIOD TIME  86400.      1440.0      24.000      1.0000     2.73785E-03
         TOTAL TIME  86400.      1440.0      24.000      1.0000     2.73785E-03


end timestep


start timestep kper="2" kstp="1" mode="normal"


 END OF FILE DETECTED IN OUTPUT CONTROL.
 CURRENT OUTPUT CONTROL SETTINGS WILL BE 
 REPEATED UNTIL THE END OF THE SIMULATION.

 OUTPUT CONTROL FOR STRESS PERIOD 2 IS REPEATED USING SETTINGS FROM A PREVIOUS STRESS PERIOD.


 PROCESSING STORAGE PERIOD DATA
 END PROCESSING STORAGE PERIOD DATA


 STRESS PERIOD 2 IS TRANSIENT

 UBDSV1 SAVING           STO-SS ON UNIT   1027 AT TIME STEP      1, STRESS PERIOD      2
 UBDSV1 SAVING           STO-SY ON UNIT   1027 AT TIME STEP      1, STRESS PERIOD      2
 UBDSV1 SAVING     FLOW-JA-FACE ON UNIT   1027 AT TIME STEP      1, STRESS PERIOD      2
 UBDSV06 SAVING       DATA-SPDIS IN MODEL GWF_PUMPTREAT    PACKAGE NPF             CONNECTED TO MODEL GWF_PUMPTREAT    PACKAGE NPF              ON UNIT   1027 AT TIME STEP      1, STRESS PERIOD      2
 UBDSV06 SAVING              WEL IN MODEL GWF_PUMPTREAT    PACKAGE GWF_PUMPTREAT   CONNECTED TO MODEL GWF_PUMPTREAT    PACKAGE WEL-1            ON UNIT   1027 AT TIME STEP      1, STRESS PERIOD      2
 UBDSV06 SAVING              CHD IN MODEL GWF_PUMPTREAT    PACKAGE GWF_PUMPTREAT   CONNECTED TO MODEL GWF_PUMPTREAT    PACKAGE CHD-1            ON UNIT   1027 AT TIME STEP      1, STRESS PERIOD      2

 HEAD WILL BE SAVED ON UNIT 1028 AT END OF TIME STEP    1, STRESS PERIOD    2

end timestep


start timestep kper="2" kstp="2" mode="normal"

 UBDSV1 SAVING           STO-SS ON UNIT   1027 AT TIME STEP      2, STRESS PERIOD      2
 UBDSV1 SAVING           STO-SY ON UNIT   1027 AT TIME STEP      2, STRESS PERIOD      2
 UBDSV1 SAVING     FLOW-JA-FACE ON UNIT   1027 AT TIME STEP      2, STRESS PERIOD      2
 UBDSV06 SAVING       DATA-SPDIS IN MODEL GWF_PUMPTREAT    PACKAGE NPF             CONNECTED TO MODEL GWF_PUMPTREAT    PACKAGE NPF              ON UNIT   1027 AT TIME STEP      2, STRESS PERIOD      2
 UBDSV06 SAVING              WEL IN MODEL GWF_PUMPTREAT    PACKAGE GWF_PUMPTREAT   CONNECTED TO MODEL GWF_PUMPTREAT    PACKAGE WEL-1            ON UNIT   1027 AT TIME STEP      2, STRESS PERIOD      2
 UBDSV06 SAVING              CHD IN MODEL GWF_PUMPTREAT    PACKAGE GWF_PUMPTREAT   CONNECTED TO MODEL GWF_PUMPTREAT    PACKAGE CHD-1            ON UNIT   1027 AT TIME STEP      2, STRESS PERIOD      2

 HEAD WILL BE SAVED ON UNIT 1028 AT END OF TIME STEP    2, STRESS PERIOD    2

end timestep


start timestep kper="2" kstp="3" mode="normal"

 UBDSV1 SAVING           STO-SS ON UNIT   1027 AT TIME STEP      3, STRESS PERIOD      2
 UBDSV1 SAVING           STO-SY ON UNIT   1027 AT TIME STEP      3, STRESS PERIOD      2
 UBDSV1 SAVING     FLOW-JA-FACE ON UNIT   1027 AT TIME STEP      3, STRESS PERIOD      2
 UBDSV06 SAVING       DATA-SPDIS IN MODEL GWF_PUMPTREAT    PACKAGE NPF             CONNECTED TO MODEL GWF_PUMPTREAT    PACKAGE NPF              ON UNIT   1027 AT TIME STEP      3, STRESS PERIOD      2
 UBDSV06 SAVING              WEL IN MODEL GWF_PUMPTREAT    PACKAGE GWF_PUMPTREAT   CONNECTED TO MODEL GWF_PUMPTREAT    PACKAGE WEL-1            ON UNIT   1027 AT TIME STEP      3, STRESS PERIOD      2
 UBDSV06 SAVING              CHD IN MODEL GWF_PUMPTREAT    PACKAGE GWF_PUMPTREAT   CONNECTED TO MODEL GWF_PUMPTREAT    PACKAGE CHD-1            ON UNIT   1027 AT TIME STEP      3, STRESS PERIOD      2

 HEAD WILL BE SAVED ON UNIT 1028 AT END OF TIME STEP    3, STRESS PERIOD    2

end timestep


start timestep kper="2" kstp="4" mode="normal"

 UBDSV1 SAVING           STO-SS ON UNIT   1027 AT TIME STEP      4, STRESS PERIOD      2
 UBDSV1 SAVING           STO-SY ON UNIT   1027 AT TIME STEP      4, STRESS PERIOD      2
 UBDSV1 SAVING     FLOW-JA-FACE ON UNIT   1027 AT TIME STEP      4, STRESS PERIOD      2
 UBDSV06 SAVING       DATA-SPDIS IN MODEL GWF_PUMPTREAT    PACKAGE NPF             CONNECTED TO MODEL GWF_PUMPTREAT    PACKAGE NPF              ON UNIT   1027 AT TIME STEP      4, STRESS PERIOD      2
 UBDSV06 SAVING              WEL IN MODEL GWF_PUMPTREAT    PACKAGE GWF_PUMPTREAT   CONNECTED TO MODEL GWF_PUMPTREAT    PACKAGE WEL-1            ON UNIT   1027 AT TIME STEP      4, STRESS PERIOD      2
 UBDSV06 SAVING              CHD IN MODEL GWF_PUMPTREAT    PACKAGE GWF_PUMPTREAT   CONNECTED TO MODEL GWF_PUMPTREAT    PACKAGE CHD-1            ON UNIT   1027 AT TIME STEP      4, STRESS PERIOD      2

 HEAD WILL BE SAVED ON UNIT 1028 AT END OF TIME STEP    4, STRESS PERIOD    2

end timestep


start timestep kper="2" kstp="5" mode="normal"

 UBDSV1 SAVING           STO-SS ON UNIT   1027 AT TIME STEP      5, STRESS PERIOD      2
 UBDSV1 SAVING           STO-SY ON UNIT   1027 AT TIME STEP      5, STRESS PERIOD      2
 UBDSV1 SAVING     FLOW-JA-FACE ON UNIT   1027 AT TIME STEP      5, STRESS PERIOD      2
 UBDSV06 SAVING       DATA-SPDIS IN MODEL GWF_PUMPTREAT    PACKAGE NPF             CONNECTED TO MODEL GWF_PUMPTREAT    PACKAGE NPF              ON UNIT   1027 AT TIME STEP      5, STRESS PERIOD      2
 UBDSV06 SAVING              WEL IN MODEL GWF_PUMPTREAT    PACKAGE GWF_PUMPTREAT   CONNECTED TO MODEL GWF_PUMPTREAT    PACKAGE WEL-1            ON UNIT   1027 AT TIME STEP      5, STRESS PERIOD      2
 UBDSV06 SAVING              CHD IN MODEL GWF_PUMPTREAT    PACKAGE GWF_PUMPTREAT   CONNECTED TO MODEL GWF_PUMPTREAT    PACKAGE CHD-1            ON UNIT   1027 AT TIME STEP      5, STRESS PERIOD      2

 HEAD WILL BE SAVED ON UNIT 1028 AT END OF TIME STEP    5, STRESS PERIOD    2

end timestep


start timestep kper="2" kstp="6" mode="normal"

 UBDSV1 SAVING           STO-SS ON UNIT   1027 AT TIME STEP      6, STRESS PERIOD      2
 UBDSV1 SAVING           STO-SY ON UNIT   1027 AT TIME STEP      6, STRESS PERIOD      2
 UBDSV1 SAVING     FLOW-JA-FACE ON UNIT   1027 AT TIME STEP      6, STRESS PERIOD      2
 UBDSV06 SAVING       DATA-SPDIS IN MODEL GWF_PUMPTREAT    PACKAGE NPF             CONNECTED TO MODEL GWF_PUMPTREAT    PACKAGE NPF              ON UNIT   1027 AT TIME STEP      6, STRESS PERIOD      2
 UBDSV06 SAVING              WEL IN MODEL GWF_PUMPTREAT    PACKAGE GWF_PUMPTREAT   CONNECTED TO MODEL GWF_PUMPTREAT    PACKAGE WEL-1            ON UNIT   1027 AT TIME STEP      6, STRESS PERIOD      2
 UBDSV06 SAVING              CHD IN MODEL GWF_PUMPTREAT    PACKAGE GWF_PUMPTREAT   CONNECTED TO MODEL GWF_PUMPTREAT    PACKAGE CHD-1            ON UNIT   1027 AT TIME STEP      6, STRESS PERIOD      2

 HEAD WILL BE SAVED ON UNIT 1028 AT END OF TIME STEP    6, STRESS PERIOD    2

end timestep


start timestep kper="2" kstp="7" mode="normal"

 UBDSV1 SAVING           STO-SS ON UNIT   1027 AT TIME STEP      7, STRESS PERIOD      2
 UBDSV1 SAVING           STO-SY ON UNIT   1027 AT TIME STEP      7, STRESS PERIOD      2
 UBDSV1 SAVING     FLOW-JA-FACE ON UNIT   1027 AT TIME STEP      7, STRESS PERIOD      2
 UBDSV06 SAVING       DATA-SPDIS IN MODEL GWF_PUMPTREAT    PACKAGE NPF             CONNECTED TO MODEL GWF_PUMPTREAT    PACKAGE NPF              ON UNIT   1027 AT TIME STEP      7, STRESS PERIOD      2
 UBDSV06 SAVING              WEL IN MODEL GWF_PUMPTREAT    PACKAGE GWF_PUMPTREAT   CONNECTED TO MODEL GWF_PUMPTREAT    PACKAGE WEL-1            ON UNIT   1027 AT TIME STEP      7, STRESS PERIOD      2
 UBDSV06 SAVING              CHD IN MODEL GWF_PUMPTREAT    PACKAGE GWF_PUMPTREAT   CONNECTED TO MODEL GWF_PUMPTREAT    PACKAGE CHD-1            ON UNIT   1027 AT TIME STEP      7, STRESS PERIOD      2

 HEAD WILL BE SAVED ON UNIT 1028 AT END OF TIME STEP    7, STRESS PERIOD    2

end timestep


start timestep kper="2" kstp="8" mode="normal"

 UBDSV1 SAVING           STO-SS ON UNIT   1027 AT TIME STEP      8, STRESS PERIOD      2
 UBDSV1 SAVING           STO-SY ON UNIT   1027 AT TIME STEP      8, STRESS PERIOD      2
 UBDSV1 SAVING     FLOW-JA-FACE ON UNIT   1027 AT TIME STEP      8, STRESS PERIOD      2
 UBDSV06 SAVING       DATA-SPDIS IN MODEL GWF_PUMPTREAT    PACKAGE NPF             CONNECTED TO MODEL GWF_PUMPTREAT    PACKAGE NPF              ON UNIT   1027 AT TIME STEP      8, STRESS PERIOD      2
 UBDSV06 SAVING              WEL IN MODEL GWF_PUMPTREAT    PACKAGE GWF_PUMPTREAT   CONNECTED TO MODEL GWF_PUMPTREAT    PACKAGE WEL-1            ON UNIT   1027 AT TIME STEP      8, STRESS PERIOD      2
 UBDSV06 SAVING              CHD IN MODEL GWF_PUMPTREAT    PACKAGE GWF_PUMPTREAT   CONNECTED TO MODEL GWF_PUMPTREAT    PACKAGE CHD-1            ON UNIT   1027 AT TIME STEP      8, STRESS PERIOD      2

 HEAD WILL BE SAVED ON UNIT 1028 AT END OF TIME STEP    8, STRESS PERIOD    2

end timestep


start timestep kper="2" kstp="9" mode="normal"

 UBDSV1 SAVING           STO-SS ON UNIT   1027 AT TIME STEP      9, STRESS PERIOD      2
 UBDSV1 SAVING           STO-SY ON UNIT   1027 AT TIME STEP      9, STRESS PERIOD      2
 UBDSV1 SAVING     FLOW-JA-FACE ON UNIT   1027 AT TIME STEP      9, STRESS PERIOD      2
 UBDSV06 SAVING       DATA-SPDIS IN MODEL GWF_PUMPTREAT    PACKAGE NPF             CONNECTED TO MODEL GWF_PUMPTREAT    PACKAGE NPF              ON UNIT   1027 AT TIME STEP      9, STRESS PERIOD      2
 UBDSV06 SAVING              WEL IN MODEL GWF_PUMPTREAT    PACKAGE GWF_PUMPTREAT   CONNECTED TO MODEL GWF_PUMPTREAT    PACKAGE WEL-1            ON UNIT   1027 AT TIME STEP      9, STRESS PERIOD      2
 UBDSV06 SAVING              CHD IN MODEL GWF_PUMPTREAT    PACKAGE GWF_PUMPTREAT   CONNECTED TO MODEL GWF_PUMPTREAT    PACKAGE CHD-1            ON UNIT   1027 AT TIME STEP      9, STRESS PERIOD      2

 HEAD WILL BE SAVED ON UNIT 1028 AT END OF TIME STEP    9, STRESS PERIOD    2

end timestep


start timestep kper="2" kstp="10" mode="normal"

 UBDSV1 SAVING           STO-SS ON UNIT   1027 AT TIME STEP     10, STRESS PERIOD      2
 UBDSV1 SAVING           STO-SY ON UNIT   1027 AT TIME STEP     10, STRESS PERIOD      2
 UBDSV1 SAVING     FLOW-JA-FACE ON UNIT   1027 AT TIME STEP     10, STRESS PERIOD      2
 UBDSV06 SAVING       DATA-SPDIS IN MODEL GWF_PUMPTREAT    PACKAGE NPF             CONNECTED TO MODEL GWF_PUMPTREAT    PACKAGE NPF              ON UNIT   1027 AT TIME STEP     10, STRESS PERIOD      2
 UBDSV06 SAVING              WEL IN MODEL GWF_PUMPTREAT    PACKAGE GWF_PUMPTREAT   CONNECTED TO MODEL GWF_PUMPTREAT    PACKAGE WEL-1            ON UNIT   1027 AT TIME STEP     10, STRESS PERIOD      2
 UBDSV06 SAVING              CHD IN MODEL GWF_PUMPTREAT    PACKAGE GWF_PUMPTREAT   CONNECTED TO MODEL GWF_PUMPTREAT    PACKAGE CHD-1            ON UNIT   1027 AT TIME STEP     10, STRESS PERIOD      2

 HEAD WILL BE SAVED ON UNIT 1028 AT END OF TIME STEP   10, STRESS PERIOD    2

end timestep


start timestep kper="2" kstp="11" mode="normal"

 UBDSV1 SAVING           STO-SS ON UNIT   1027 AT TIME STEP     11, STRESS PERIOD      2
 UBDSV1 SAVING           STO-SY ON UNIT   1027 AT TIME STEP     11, STRESS PERIOD      2
 UBDSV1 SAVING     FLOW-JA-FACE ON UNIT   1027 AT TIME STEP     11, STRESS PERIOD      2
 UBDSV06 SAVING       DATA-SPDIS IN MODEL GWF_PUMPTREAT    PACKAGE NPF             CONNECTED TO MODEL GWF_PUMPTREAT    PACKAGE NPF              ON UNIT   1027 AT TIME STEP     11, STRESS PERIOD      2
 UBDSV06 SAVING              WEL IN MODEL GWF_PUMPTREAT    PACKAGE GWF_PUMPTREAT   CONNECTED TO MODEL GWF_PUMPTREAT    PACKAGE WEL-1            ON UNIT   1027 AT TIME STEP     11, STRESS PERIOD      2
 UBDSV06 SAVING              CHD IN MODEL GWF_PUMPTREAT    PACKAGE GWF_PUMPTREAT   CONNECTED TO MODEL GWF_PUMPTREAT    PACKAGE CHD-1            ON UNIT   1027 AT TIME STEP     11, STRESS PERIOD      2

 HEAD WILL BE SAVED ON UNIT 1028 AT END OF TIME STEP   11, STRESS PERIOD    2

end timestep


start timestep kper="2" kstp="12" mode="normal"

 UBDSV1 SAVING           STO-SS ON UNIT   1027 AT TIME STEP     12, STRESS PERIOD      2
 UBDSV1 SAVING           STO-SY ON UNIT   1027 AT TIME STEP     12, STRESS PERIOD      2
 UBDSV1 SAVING     FLOW-JA-FACE ON UNIT   1027 AT TIME STEP     12, STRESS PERIOD      2
 UBDSV06 SAVING       DATA-SPDIS IN MODEL GWF_PUMPTREAT    PACKAGE NPF             CONNECTED TO MODEL GWF_PUMPTREAT    PACKAGE NPF              ON UNIT   1027 AT TIME STEP     12, STRESS PERIOD      2
 UBDSV06 SAVING              WEL IN MODEL GWF_PUMPTREAT    PACKAGE GWF_PUMPTREAT   CONNECTED TO MODEL GWF_PUMPTREAT    PACKAGE WEL-1            ON UNIT   1027 AT TIME STEP     12, STRESS PERIOD      2
 UBDSV06 SAVING              CHD IN MODEL GWF_PUMPTREAT    PACKAGE GWF_PUMPTREAT   CONNECTED TO MODEL GWF_PUMPTREAT    PACKAGE CHD-1            ON UNIT   1027 AT TIME STEP     12, STRESS PERIOD      2

 HEAD WILL BE SAVED ON UNIT 1028 AT END OF TIME STEP   12, STRESS PERIOD    2

end timestep


start timestep kper="2" kstp="13" mode="normal"

 UBDSV1 SAVING           STO-SS ON UNIT   1027 AT TIME STEP     13, STRESS PERIOD      2
 UBDSV1 SAVING           STO-SY ON UNIT   1027 AT TIME STEP     13, STRESS PERIOD      2
 UBDSV1 SAVING     FLOW-JA-FACE ON UNIT   1027 AT TIME STEP     13, STRESS PERIOD      2
 UBDSV06 SAVING       DATA-SPDIS IN MODEL GWF_PUMPTREAT    PACKAGE NPF             CONNECTED TO MODEL GWF_PUMPTREAT    PACKAGE NPF              ON UNIT   1027 AT TIME STEP     13, STRESS PERIOD      2
 UBDSV06 SAVING              WEL IN MODEL GWF_PUMPTREAT    PACKAGE GWF_PUMPTREAT   CONNECTED TO MODEL GWF_PUMPTREAT    PACKAGE WEL-1            ON UNIT   1027 AT TIME STEP     13, STRESS PERIOD      2
 UBDSV06 SAVING              CHD IN MODEL GWF_PUMPTREAT    PACKAGE GWF_PUMPTREAT   CONNECTED TO MODEL GWF_PUMPTREAT    PACKAGE CHD-1            ON UNIT   1027 AT TIME STEP     13, STRESS PERIOD      2

 HEAD WILL BE SAVED ON UNIT 1028 AT END OF TIME STEP   13, STRESS PERIOD    2

end timestep


start timestep kper="2" kstp="14" mode="normal"

 UBDSV1 SAVING           STO-SS ON UNIT   1027 AT TIME STEP     14, STRESS PERIOD      2
 UBDSV1 SAVING           STO-SY ON UNIT   1027 AT TIME STEP     14, STRESS PERIOD      2
 UBDSV1 SAVING     FLOW-JA-FACE ON UNIT   1027 AT TIME STEP     14, STRESS PERIOD      2
 UBDSV06 SAVING       DATA-SPDIS IN MODEL GWF_PUMPTREAT    PACKAGE NPF             CONNECTED TO MODEL GWF_PUMPTREAT    PACKAGE NPF              ON UNIT   1027 AT TIME STEP     14, STRESS PERIOD      2
 UBDSV06 SAVING              WEL IN MODEL GWF_PUMPTREAT    PACKAGE GWF_PUMPTREAT   CONNECTED TO MODEL GWF_PUMPTREAT    PACKAGE WEL-1            ON UNIT   1027 AT TIME STEP     14, STRESS PERIOD      2
 UBDSV06 SAVING              CHD IN MODEL GWF_PUMPTREAT    PACKAGE GWF_PUMPTREAT   CONNECTED TO MODEL GWF_PUMPTREAT    PACKAGE CHD-1            ON UNIT   1027 AT TIME STEP     14, STRESS PERIOD      2

 HEAD WILL BE SAVED ON UNIT 1028 AT END OF TIME STEP   14, STRESS PERIOD    2

end timestep


start timestep kper="2" kstp="15" mode="normal"

 UBDSV1 SAVING           STO-SS ON UNIT   1027 AT TIME STEP     15, STRESS PERIOD      2
 UBDSV1 SAVING           STO-SY ON UNIT   1027 AT TIME STEP     15, STRESS PERIOD      2
 UBDSV1 SAVING     FLOW-JA-FACE ON UNIT   1027 AT TIME STEP     15, STRESS PERIOD      2
 UBDSV06 SAVING       DATA-SPDIS IN MODEL GWF_PUMPTREAT    PACKAGE NPF             CONNECTED TO MODEL GWF_PUMPTREAT    PACKAGE NPF              ON UNIT   1027 AT TIME STEP     15, STRESS PERIOD      2
 UBDSV06 SAVING              WEL IN MODEL GWF_PUMPTREAT    PACKAGE GWF_PUMPTREAT   CONNECTED TO MODEL GWF_PUMPTREAT    PACKAGE WEL-1            ON UNIT   1027 AT TIME STEP     15, STRESS PERIOD      2
 UBDSV06 SAVING              CHD IN MODEL GWF_PUMPTREAT    PACKAGE GWF_PUMPTREAT   CONNECTED TO MODEL GWF_PUMPTREAT    PACKAGE CHD-1            ON UNIT   1027 AT TIME STEP     15, STRESS PERIOD      2

 HEAD WILL BE SAVED ON UNIT 1028 AT END OF TIME STEP   15, STRESS PERIOD    2

end timestep


start timestep kper="2" kstp="16" mode="normal"

 UBDSV1 SAVING           STO-SS ON UNIT   1027 AT TIME STEP     16, STRESS PERIOD      2
 UBDSV1 SAVING           STO-SY ON UNIT   1027 AT TIME STEP     16, STRESS PERIOD      2
 UBDSV1 SAVING     FLOW-JA-FACE ON UNIT   1027 AT TIME STEP     16, STRESS PERIOD      2
 UBDSV06 SAVING       DATA-SPDIS IN MODEL GWF_PUMPTREAT    PACKAGE NPF             CONNECTED TO MODEL GWF_PUMPTREAT    PACKAGE NPF              ON UNIT   1027 AT TIME STEP     16, STRESS PERIOD      2
 UBDSV06 SAVING              WEL IN MODEL GWF_PUMPTREAT    PACKAGE GWF_PUMPTREAT   CONNECTED TO MODEL GWF_PUMPTREAT    PACKAGE WEL-1            ON UNIT   1027 AT TIME STEP     16, STRESS PERIOD      2
 UBDSV06 SAVING              CHD IN MODEL GWF_PUMPTREAT    PACKAGE GWF_PUMPTREAT   CONNECTED TO MODEL GWF_PUMPTREAT    PACKAGE CHD-1            ON UNIT   1027 AT TIME STEP     16, STRESS PERIOD      2

 HEAD WILL BE SAVED ON UNIT 1028 AT END OF TIME STEP   16, STRESS PERIOD    2

end timestep


start timestep kper="2" kstp="17" mode="normal"

 UBDSV1 SAVING           STO-SS ON UNIT   1027 AT TIME STEP     17, STRESS PERIOD      2
 UBDSV1 SAVING           STO-SY ON UNIT   1027 AT TIME STEP     17, STRESS PERIOD      2
 UBDSV1 SAVING     FLOW-JA-FACE ON UNIT   1027 AT TIME STEP     17, STRESS PERIOD      2
 UBDSV06 SAVING       DATA-SPDIS IN MODEL GWF_PUMPTREAT    PACKAGE NPF             CONNECTED TO MODEL GWF_PUMPTREAT    PACKAGE NPF              ON UNIT   1027 AT TIME STEP     17, STRESS PERIOD      2
 UBDSV06 SAVING              WEL IN MODEL GWF_PUMPTREAT    PACKAGE GWF_PUMPTREAT   CONNECTED TO MODEL GWF_PUMPTREAT    PACKAGE WEL-1            ON UNIT   1027 AT TIME STEP     17, STRESS PERIOD      2
 UBDSV06 SAVING              CHD IN MODEL GWF_PUMPTREAT    PACKAGE GWF_PUMPTREAT   CONNECTED TO MODEL GWF_PUMPTREAT    PACKAGE CHD-1            ON UNIT   1027 AT TIME STEP     17, STRESS PERIOD      2

 HEAD WILL BE SAVED ON UNIT 1028 AT END OF TIME STEP   17, STRESS PERIOD    2

end timestep


start timestep kper="2" kstp="18" mode="normal"

 UBDSV1 SAVING           STO-SS ON UNIT   1027 AT TIME STEP     18, STRESS PERIOD      2
 UBDSV1 SAVING           STO-SY ON UNIT   1027 AT TIME STEP     18, STRESS PERIOD      2
 UBDSV1 SAVING     FLOW-JA-FACE ON UNIT   1027 AT TIME STEP     18, STRESS PERIOD      2
 UBDSV06 SAVING       DATA-SPDIS IN MODEL GWF_PUMPTREAT    PACKAGE NPF             CONNECTED TO MODEL GWF_PUMPTREAT    PACKAGE NPF              ON UNIT   1027 AT TIME STEP     18, STRESS PERIOD      2
 UBDSV06 SAVING              WEL IN MODEL GWF_PUMPTREAT    PACKAGE GWF_PUMPTREAT   CONNECTED TO MODEL GWF_PUMPTREAT    PACKAGE WEL-1            ON UNIT   1027 AT TIME STEP     18, STRESS PERIOD      2
 UBDSV06 SAVING              CHD IN MODEL GWF_PUMPTREAT    PACKAGE GWF_PUMPTREAT   CONNECTED TO MODEL GWF_PUMPTREAT    PACKAGE CHD-1            ON UNIT   1027 AT TIME STEP     18, STRESS PERIOD      2

 HEAD WILL BE SAVED ON UNIT 1028 AT END OF TIME STEP   18, STRESS PERIOD    2

end timestep


start timestep kper="2" kstp="19" mode="normal"

 UBDSV1 SAVING           STO-SS ON UNIT   1027 AT TIME STEP     19, STRESS PERIOD      2
 UBDSV1 SAVING           STO-SY ON UNIT   1027 AT TIME STEP     19, STRESS PERIOD      2
 UBDSV1 SAVING     FLOW-JA-FACE ON UNIT   1027 AT TIME STEP     19, STRESS PERIOD      2
 UBDSV06 SAVING       DATA-SPDIS IN MODEL GWF_PUMPTREAT    PACKAGE NPF             CONNECTED TO MODEL GWF_PUMPTREAT    PACKAGE NPF              ON UNIT   1027 AT TIME STEP     19, STRESS PERIOD      2
 UBDSV06 SAVING              WEL IN MODEL GWF_PUMPTREAT    PACKAGE GWF_PUMPTREAT   CONNECTED TO MODEL GWF_PUMPTREAT    PACKAGE WEL-1            ON UNIT   1027 AT TIME STEP     19, STRESS PERIOD      2
 UBDSV06 SAVING              CHD IN MODEL GWF_PUMPTREAT    PACKAGE GWF_PUMPTREAT   CONNECTED TO MODEL GWF_PUMPTREAT    PACKAGE CHD-1            ON UNIT   1027 AT TIME STEP     19, STRESS PERIOD      2

 HEAD WILL BE SAVED ON UNIT 1028 AT END OF TIME STEP   19, STRESS PERIOD    2

end timestep


start timestep kper="2" kstp="20" mode="normal"

 UBDSV1 SAVING           STO-SS ON UNIT   1027 AT TIME STEP     20, STRESS PERIOD      2
 UBDSV1 SAVING           STO-SY ON UNIT   1027 AT TIME STEP     20, STRESS PERIOD      2
 UBDSV1 SAVING     FLOW-JA-FACE ON UNIT   1027 AT TIME STEP     20, STRESS PERIOD      2
 UBDSV06 SAVING       DATA-SPDIS IN MODEL GWF_PUMPTREAT    PACKAGE NPF             CONNECTED TO MODEL GWF_PUMPTREAT    PACKAGE NPF              ON UNIT   1027 AT TIME STEP     20, STRESS PERIOD      2
 UBDSV06 SAVING              WEL IN MODEL GWF_PUMPTREAT    PACKAGE GWF_PUMPTREAT   CONNECTED TO MODEL GWF_PUMPTREAT    PACKAGE WEL-1            ON UNIT   1027 AT TIME STEP     20, STRESS PERIOD      2
 UBDSV06 SAVING              CHD IN MODEL GWF_PUMPTREAT    PACKAGE GWF_PUMPTREAT   CONNECTED TO MODEL GWF_PUMPTREAT    PACKAGE CHD-1            ON UNIT   1027 AT TIME STEP     20, STRESS PERIOD      2

 HEAD WILL BE SAVED ON UNIT 1028 AT END OF TIME STEP   20, STRESS PERIOD    2

end timestep


start timestep kper="2" kstp="21" mode="normal"

 UBDSV1 SAVING           STO-SS ON UNIT   1027 AT TIME STEP     21, STRESS PERIOD      2
 UBDSV1 SAVING           STO-SY ON UNIT   1027 AT TIME STEP     21, STRESS PERIOD      2
 UBDSV1 SAVING     FLOW-JA-FACE ON UNIT   1027 AT TIME STEP     21, STRESS PERIOD      2
 UBDSV06 SAVING       DATA-SPDIS IN MODEL GWF_PUMPTREAT    PACKAGE NPF             CONNECTED TO MODEL GWF_PUMPTREAT    PACKAGE NPF              ON UNIT   1027 AT TIME STEP     21, STRESS PERIOD      2
 UBDSV06 SAVING              WEL IN MODEL GWF_PUMPTREAT    PACKAGE GWF_PUMPTREAT   CONNECTED TO MODEL GWF_PUMPTREAT    PACKAGE WEL-1            ON UNIT   1027 AT TIME STEP     21, STRESS PERIOD      2
 UBDSV06 SAVING              CHD IN MODEL GWF_PUMPTREAT    PACKAGE GWF_PUMPTREAT   CONNECTED TO MODEL GWF_PUMPTREAT    PACKAGE CHD-1            ON UNIT   1027 AT TIME STEP     21, STRESS PERIOD      2

 HEAD WILL BE SAVED ON UNIT 1028 AT END OF TIME STEP   21, STRESS PERIOD    2

end timestep


start timestep kper="2" kstp="22" mode="normal"

 UBDSV1 SAVING           STO-SS ON UNIT   1027 AT TIME STEP     22, STRESS PERIOD      2
 UBDSV1 SAVING           STO-SY ON UNIT   1027 AT TIME STEP     22, STRESS PERIOD      2
 UBDSV1 SAVING     FLOW-JA-FACE ON UNIT   1027 AT TIME STEP     22, STRESS PERIOD      2
 UBDSV06 SAVING       DATA-SPDIS IN MODEL GWF_PUMPTREAT    PACKAGE NPF             CONNECTED TO MODEL GWF_PUMPTREAT    PACKAGE NPF              ON UNIT   1027 AT TIME STEP     22, STRESS PERIOD      2
 UBDSV06 SAVING              WEL IN MODEL GWF_PUMPTREAT    PACKAGE GWF_PUMPTREAT   CONNECTED TO MODEL GWF_PUMPTREAT    PACKAGE WEL-1            ON UNIT   1027 AT TIME STEP     22, STRESS PERIOD      2
 UBDSV06 SAVING              CHD IN MODEL GWF_PUMPTREAT    PACKAGE GWF_PUMPTREAT   CONNECTED TO MODEL GWF_PUMPTREAT    PACKAGE CHD-1            ON UNIT   1027 AT TIME STEP     22, STRESS PERIOD      2

 HEAD WILL BE SAVED ON UNIT 1028 AT END OF TIME STEP   22, STRESS PERIOD    2

end timestep


start timestep kper="2" kstp="23" mode="normal"

 UBDSV1 SAVING           STO-SS ON UNIT   1027 AT TIME STEP     23, STRESS PERIOD      2
 UBDSV1 SAVING           STO-SY ON UNIT   1027 AT TIME STEP     23, STRESS PERIOD      2
 UBDSV1 SAVING     FLOW-JA-FACE ON UNIT   1027 AT TIME STEP     23, STRESS PERIOD      2
 UBDSV06 SAVING       DATA-SPDIS IN MODEL GWF_PUMPTREAT    PACKAGE NPF             CONNECTED TO MODEL GWF_PUMPTREAT    PACKAGE NPF              ON UNIT   1027 AT TIME STEP     23, STRESS PERIOD      2
 UBDSV06 SAVING              WEL IN MODEL GWF_PUMPTREAT    PACKAGE GWF_PUMPTREAT   CONNECTED TO MODEL GWF_PUMPTREAT    PACKAGE WEL-1            ON UNIT   1027 AT TIME STEP     23, STRESS PERIOD      2
 UBDSV06 SAVING              CHD IN MODEL GWF_PUMPTREAT    PACKAGE GWF_PUMPTREAT   CONNECTED TO MODEL GWF_PUMPTREAT    PACKAGE CHD-1            ON UNIT   1027 AT TIME STEP     23, STRESS PERIOD      2

 HEAD WILL BE SAVED ON UNIT 1028 AT END OF TIME STEP   23, STRESS PERIOD    2

end timestep


start timestep kper="2" kstp="24" mode="normal"

 UBDSV1 SAVING           STO-SS ON UNIT   1027 AT TIME STEP     24, STRESS PERIOD      2
 UBDSV1 SAVING           STO-SY ON UNIT   1027 AT TIME STEP     24, STRESS PERIOD      2
 UBDSV1 SAVING     FLOW-JA-FACE ON UNIT   1027 AT TIME STEP     24, STRESS PERIOD      2
 UBDSV06 SAVING       DATA-SPDIS IN MODEL GWF_PUMPTREAT    PACKAGE NPF             CONNECTED TO MODEL GWF_PUMPTREAT    PACKAGE NPF              ON UNIT   1027 AT TIME STEP     24, STRESS PERIOD      2
 UBDSV06 SAVING              WEL IN MODEL GWF_PUMPTREAT    PACKAGE GWF_PUMPTREAT   CONNECTED TO MODEL GWF_PUMPTREAT    PACKAGE WEL-1            ON UNIT   1027 AT TIME STEP     24, STRESS PERIOD      2
 UBDSV06 SAVING              CHD IN MODEL GWF_PUMPTREAT    PACKAGE GWF_PUMPTREAT   CONNECTED TO MODEL GWF_PUMPTREAT    PACKAGE CHD-1            ON UNIT   1027 AT TIME STEP     24, STRESS PERIOD      2

 HEAD WILL BE SAVED ON UNIT 1028 AT END OF TIME STEP   24, STRESS PERIOD    2

end timestep


start timestep kper="2" kstp="25" mode="normal"

 UBDSV1 SAVING           STO-SS ON UNIT   1027 AT TIME STEP     25, STRESS PERIOD      2
 UBDSV1 SAVING           STO-SY ON UNIT   1027 AT TIME STEP     25, STRESS PERIOD      2
 UBDSV1 SAVING     FLOW-JA-FACE ON UNIT   1027 AT TIME STEP     25, STRESS PERIOD      2
 UBDSV06 SAVING       DATA-SPDIS IN MODEL GWF_PUMPTREAT    PACKAGE NPF             CONNECTED TO MODEL GWF_PUMPTREAT    PACKAGE NPF              ON UNIT   1027 AT TIME STEP     25, STRESS PERIOD      2
 UBDSV06 SAVING              WEL IN MODEL GWF_PUMPTREAT    PACKAGE GWF_PUMPTREAT   CONNECTED TO MODEL GWF_PUMPTREAT    PACKAGE WEL-1            ON UNIT   1027 AT TIME STEP     25, STRESS PERIOD      2
 UBDSV06 SAVING              CHD IN MODEL GWF_PUMPTREAT    PACKAGE GWF_PUMPTREAT   CONNECTED TO MODEL GWF_PUMPTREAT    PACKAGE CHD-1            ON UNIT   1027 AT TIME STEP     25, STRESS PERIOD      2

 HEAD WILL BE SAVED ON UNIT 1028 AT END OF TIME STEP   25, STRESS PERIOD    2

end timestep


start timestep kper="2" kstp="26" mode="normal"

 UBDSV1 SAVING           STO-SS ON UNIT   1027 AT TIME STEP     26, STRESS PERIOD      2
 UBDSV1 SAVING           STO-SY ON UNIT   1027 AT TIME STEP     26, STRESS PERIOD      2
 UBDSV1 SAVING     FLOW-JA-FACE ON UNIT   1027 AT TIME STEP     26, STRESS PERIOD      2
 UBDSV06 SAVING       DATA-SPDIS IN MODEL GWF_PUMPTREAT    PACKAGE NPF             CONNECTED TO MODEL GWF_PUMPTREAT    PACKAGE NPF              ON UNIT   1027 AT TIME STEP     26, STRESS PERIOD      2
 UBDSV06 SAVING              WEL IN MODEL GWF_PUMPTREAT    PACKAGE GWF_PUMPTREAT   CONNECTED TO MODEL GWF_PUMPTREAT    PACKAGE WEL-1            ON UNIT   1027 AT TIME STEP     26, STRESS PERIOD      2
 UBDSV06 SAVING              CHD IN MODEL GWF_PUMPTREAT    PACKAGE GWF_PUMPTREAT   CONNECTED TO MODEL GWF_PUMPTREAT    PACKAGE CHD-1            ON UNIT   1027 AT TIME STEP     26, STRESS PERIOD      2

 HEAD WILL BE SAVED ON UNIT 1028 AT END OF TIME STEP   26, STRESS PERIOD    2

end timestep


start timestep kper="2" kstp="27" mode="normal"

 UBDSV1 SAVING           STO-SS ON UNIT   1027 AT TIME STEP     27, STRESS PERIOD      2
 UBDSV1 SAVING           STO-SY ON UNIT   1027 AT TIME STEP     27, STRESS PERIOD      2
 UBDSV1 SAVING     FLOW-JA-FACE ON UNIT   1027 AT TIME STEP     27, STRESS PERIOD      2
 UBDSV06 SAVING       DATA-SPDIS IN MODEL GWF_PUMPTREAT    PACKAGE NPF             CONNECTED TO MODEL GWF_PUMPTREAT    PACKAGE NPF              ON UNIT   1027 AT TIME STEP     27, STRESS PERIOD      2
 UBDSV06 SAVING              WEL IN MODEL GWF_PUMPTREAT    PACKAGE GWF_PUMPTREAT   CONNECTED TO MODEL GWF_PUMPTREAT    PACKAGE WEL-1            ON UNIT   1027 AT TIME STEP     27, STRESS PERIOD      2
 UBDSV06 SAVING              CHD IN MODEL GWF_PUMPTREAT    PACKAGE GWF_PUMPTREAT   CONNECTED TO MODEL GWF_PUMPTREAT    PACKAGE CHD-1            ON UNIT   1027 AT TIME STEP     27, STRESS PERIOD      2

 HEAD WILL BE SAVED ON UNIT 1028 AT END OF TIME STEP   27, STRESS PERIOD    2

end timestep


start timestep kper="2" kstp="28" mode="normal"

 UBDSV1 SAVING           STO-SS ON UNIT   1027 AT TIME STEP     28, STRESS PERIOD      2
 UBDSV1 SAVING           STO-SY ON UNIT   1027 AT TIME STEP     28, STRESS PERIOD      2
 UBDSV1 SAVING     FLOW-JA-FACE ON UNIT   1027 AT TIME STEP     28, STRESS PERIOD      2
 UBDSV06 SAVING       DATA-SPDIS IN MODEL GWF_PUMPTREAT    PACKAGE NPF             CONNECTED TO MODEL GWF_PUMPTREAT    PACKAGE NPF              ON UNIT   1027 AT TIME STEP     28, STRESS PERIOD      2
 UBDSV06 SAVING              WEL IN MODEL GWF_PUMPTREAT    PACKAGE GWF_PUMPTREAT   CONNECTED TO MODEL GWF_PUMPTREAT    PACKAGE WEL-1            ON UNIT   1027 AT TIME STEP     28, STRESS PERIOD      2
 UBDSV06 SAVING              CHD IN MODEL GWF_PUMPTREAT    PACKAGE GWF_PUMPTREAT   CONNECTED TO MODEL GWF_PUMPTREAT    PACKAGE CHD-1            ON UNIT   1027 AT TIME STEP     28, STRESS PERIOD      2

 HEAD WILL BE SAVED ON UNIT 1028 AT END OF TIME STEP   28, STRESS PERIOD    2

end timestep


start timestep kper="2" kstp="29" mode="normal"

 UBDSV1 SAVING           STO-SS ON UNIT   1027 AT TIME STEP     29, STRESS PERIOD      2
 UBDSV1 SAVING           STO-SY ON UNIT   1027 AT TIME STEP     29, STRESS PERIOD      2
 UBDSV1 SAVING     FLOW-JA-FACE ON UNIT   1027 AT TIME STEP     29, STRESS PERIOD      2
 UBDSV06 SAVING       DATA-SPDIS IN MODEL GWF_PUMPTREAT    PACKAGE NPF             CONNECTED TO MODEL GWF_PUMPTREAT    PACKAGE NPF              ON UNIT   1027 AT TIME STEP     29, STRESS PERIOD      2
 UBDSV06 SAVING              WEL IN MODEL GWF_PUMPTREAT    PACKAGE GWF_PUMPTREAT   CONNECTED TO MODEL GWF_PUMPTREAT    PACKAGE WEL-1            ON UNIT   1027 AT TIME STEP     29, STRESS PERIOD      2
 UBDSV06 SAVING              CHD IN MODEL GWF_PUMPTREAT    PACKAGE GWF_PUMPTREAT   CONNECTED TO MODEL GWF_PUMPTREAT    PACKAGE CHD-1            ON UNIT   1027 AT TIME STEP     29, STRESS PERIOD      2

 HEAD WILL BE SAVED ON UNIT 1028 AT END OF TIME STEP   29, STRESS PERIOD    2

end timestep


start timestep kper="2" kstp="30" mode="normal"

 UBDSV1 SAVING           STO-SS ON UNIT   1027 AT TIME STEP     30, STRESS PERIOD      2
 UBDSV1 SAVING           STO-SY ON UNIT   1027 AT TIME STEP     30, STRESS PERIOD      2
 UBDSV1 SAVING     FLOW-JA-FACE ON UNIT   1027 AT TIME STEP     30, STRESS PERIOD      2
 UBDSV06 SAVING       DATA-SPDIS IN MODEL GWF_PUMPTREAT    PACKAGE NPF             CONNECTED TO MODEL GWF_PUMPTREAT    PACKAGE NPF              ON UNIT   1027 AT TIME STEP     30, STRESS PERIOD      2
 UBDSV06 SAVING              WEL IN MODEL GWF_PUMPTREAT    PACKAGE GWF_PUMPTREAT   CONNECTED TO MODEL GWF_PUMPTREAT    PACKAGE WEL-1            ON UNIT   1027 AT TIME STEP     30, STRESS PERIOD      2
 UBDSV06 SAVING              CHD IN MODEL GWF_PUMPTREAT    PACKAGE GWF_PUMPTREAT   CONNECTED TO MODEL GWF_PUMPTREAT    PACKAGE CHD-1            ON UNIT   1027 AT TIME STEP     30, STRESS PERIOD      2

 HEAD WILL BE SAVED ON UNIT 1028 AT END OF TIME STEP   30, STRESS PERIOD    2

end timestep


start timestep kper="2" kstp="31" mode="normal"

 UBDSV1 SAVING           STO-SS ON UNIT   1027 AT TIME STEP     31, STRESS PERIOD      2
 UBDSV1 SAVING           STO-SY ON UNIT   1027 AT TIME STEP     31, STRESS PERIOD      2
 UBDSV1 SAVING     FLOW-JA-FACE ON UNIT   1027 AT TIME STEP     31, STRESS PERIOD      2
 UBDSV06 SAVING       DATA-SPDIS IN MODEL GWF_PUMPTREAT    PACKAGE NPF             CONNECTED TO MODEL GWF_PUMPTREAT    PACKAGE NPF              ON UNIT   1027 AT TIME STEP     31, STRESS PERIOD      2
 UBDSV06 SAVING              WEL IN MODEL GWF_PUMPTREAT    PACKAGE GWF_PUMPTREAT   CONNECTED TO MODEL GWF_PUMPTREAT    PACKAGE WEL-1            ON UNIT   1027 AT TIME STEP     31, STRESS PERIOD      2
 UBDSV06 SAVING              CHD IN MODEL GWF_PUMPTREAT    PACKAGE GWF_PUMPTREAT   CONNECTED TO MODEL GWF_PUMPTREAT    PACKAGE CHD-1            ON UNIT   1027 AT TIME STEP     31, STRESS PERIOD      2

 HEAD WILL BE SAVED ON UNIT 1028 AT END OF TIME STEP   31, STRESS PERIOD    2

end timestep


start timestep kper="2" kstp="32" mode="normal"

 UBDSV1 SAVING           STO-SS ON UNIT   1027 AT TIME STEP     32, STRESS PERIOD      2
 UBDSV1 SAVING           STO-SY ON UNIT   1027 AT TIME STEP     32, STRESS PERIOD      2
 UBDSV1 SAVING     FLOW-JA-FACE ON UNIT   1027 AT TIME STEP     32, STRESS PERIOD      2
 UBDSV06 SAVING       DATA-SPDIS IN MODEL GWF_PUMPTREAT    PACKAGE NPF             CONNECTED TO MODEL GWF_PUMPTREAT    PACKAGE NPF              ON UNIT   1027 AT TIME STEP     32, STRESS PERIOD      2
 UBDSV06 SAVING              WEL IN MODEL GWF_PUMPTREAT    PACKAGE GWF_PUMPTREAT   CONNECTED TO MODEL GWF_PUMPTREAT    PACKAGE WEL-1            ON UNIT   1027 AT TIME STEP     32, STRESS PERIOD      2
 UBDSV06 SAVING              CHD IN MODEL GWF_PUMPTREAT    PACKAGE GWF_PUMPTREAT   CONNECTED TO MODEL GWF_PUMPTREAT    PACKAGE CHD-1            ON UNIT   1027 AT TIME STEP     32, STRESS PERIOD      2

 HEAD WILL BE SAVED ON UNIT 1028 AT END OF TIME STEP   32, STRESS PERIOD    2

end timestep


start timestep kper="2" kstp="33" mode="normal"

 UBDSV1 SAVING           STO-SS ON UNIT   1027 AT TIME STEP     33, STRESS PERIOD      2
 UBDSV1 SAVING           STO-SY ON UNIT   1027 AT TIME STEP     33, STRESS PERIOD      2
 UBDSV1 SAVING     FLOW-JA-FACE ON UNIT   1027 AT TIME STEP     33, STRESS PERIOD      2
 UBDSV06 SAVING       DATA-SPDIS IN MODEL GWF_PUMPTREAT    PACKAGE NPF             CONNECTED TO MODEL GWF_PUMPTREAT    PACKAGE NPF              ON UNIT   1027 AT TIME STEP     33, STRESS PERIOD      2
 UBDSV06 SAVING              WEL IN MODEL GWF_PUMPTREAT    PACKAGE GWF_PUMPTREAT   CONNECTED TO MODEL GWF_PUMPTREAT    PACKAGE WEL-1            ON UNIT   1027 AT TIME STEP     33, STRESS PERIOD      2
 UBDSV06 SAVING              CHD IN MODEL GWF_PUMPTREAT    PACKAGE GWF_PUMPTREAT   CONNECTED TO MODEL GWF_PUMPTREAT    PACKAGE CHD-1            ON UNIT   1027 AT TIME STEP     33, STRESS PERIOD      2

 HEAD WILL BE SAVED ON UNIT 1028 AT END OF TIME STEP   33, STRESS PERIOD    2

end timestep


start timestep kper="2" kstp="34" mode="normal"

 UBDSV1 SAVING           STO-SS ON UNIT   1027 AT TIME STEP     34, STRESS PERIOD      2
 UBDSV1 SAVING           STO-SY ON UNIT   1027 AT TIME STEP     34, STRESS PERIOD      2
 UBDSV1 SAVING     FLOW-JA-FACE ON UNIT   1027 AT TIME STEP     34, STRESS PERIOD      2
 UBDSV06 SAVING       DATA-SPDIS IN MODEL GWF_PUMPTREAT    PACKAGE NPF             CONNECTED TO MODEL GWF_PUMPTREAT    PACKAGE NPF              ON UNIT   1027 AT TIME STEP     34, STRESS PERIOD      2
 UBDSV06 SAVING              WEL IN MODEL GWF_PUMPTREAT    PACKAGE GWF_PUMPTREAT   CONNECTED TO MODEL GWF_PUMPTREAT    PACKAGE WEL-1            ON UNIT   1027 AT TIME STEP     34, STRESS PERIOD      2
 UBDSV06 SAVING              CHD IN MODEL GWF_PUMPTREAT    PACKAGE GWF_PUMPTREAT   CONNECTED TO MODEL GWF_PUMPTREAT    PACKAGE CHD-1            ON UNIT   1027 AT TIME STEP     34, STRESS PERIOD      2

 HEAD WILL BE SAVED ON UNIT 1028 AT END OF TIME STEP   34, STRESS PERIOD    2

end timestep


start timestep kper="2" kstp="35" mode="normal"

 UBDSV1 SAVING           STO-SS ON UNIT   1027 AT TIME STEP     35, STRESS PERIOD      2
 UBDSV1 SAVING           STO-SY ON UNIT   1027 AT TIME STEP     35, STRESS PERIOD      2
 UBDSV1 SAVING     FLOW-JA-FACE ON UNIT   1027 AT TIME STEP     35, STRESS PERIOD      2
 UBDSV06 SAVING       DATA-SPDIS IN MODEL GWF_PUMPTREAT    PACKAGE NPF             CONNECTED TO MODEL GWF_PUMPTREAT    PACKAGE NPF              ON UNIT   1027 AT TIME STEP     35, STRESS PERIOD      2
 UBDSV06 SAVING              WEL IN MODEL GWF_PUMPTREAT    PACKAGE GWF_PUMPTREAT   CONNECTED TO MODEL GWF_PUMPTREAT    PACKAGE WEL-1            ON UNIT   1027 AT TIME STEP     35, STRESS PERIOD      2
 UBDSV06 SAVING              CHD IN MODEL GWF_PUMPTREAT    PACKAGE GWF_PUMPTREAT   CONNECTED TO MODEL GWF_PUMPTREAT    PACKAGE CHD-1            ON UNIT   1027 AT TIME STEP     35, STRESS PERIOD      2

 HEAD WILL BE SAVED ON UNIT 1028 AT END OF TIME STEP   35, STRESS PERIOD    2


  VOLUME BUDGET FOR ENTIRE MODEL AT END OF TIME STEP   35, STRESS PERIOD   2
  ---------------------------------------------------------------------------------------------------

     CUMULATIVE VOLUME      L**3       RATES FOR THIS TIME STEP      L**3/T          PACKAGE NAME    
     ------------------                 ------------------------                     ----------------

           IN:                                      IN:
           ---                                      ---
              STO-SS =           1.0051                STO-SS =       8.3739E-02     STORAGE                          
              STO-SY =           0.0000                STO-SY =           0.0000     STORAGE                          
                 WEL =           0.0000                   WEL =           0.0000     WEL-1                            
                 CHD =        7796.4226                   CHD =         108.0087     CHD-1                            

            TOTAL IN =        7797.4277              TOTAL IN =         108.0925

          OUT:                                     OUT:
          ----                                     ----
              STO-SS =           1.3909                STO-SS =           0.0000     STORAGE                          
              STO-SY =           0.0000                STO-SY =           0.0000     STORAGE                          
                 WEL =        1538.5080                   WEL =         110.3983     WEL-1                            
                 CHD =        5997.4587                   CHD =           0.0000     CHD-1                            

           TOTAL OUT =        7537.3576             TOTAL OUT =         110.3983

            IN - OUT =         260.0701              IN - OUT =          -2.3058

 PERCENT DISCREPANCY =           3.39     PERCENT DISCREPANCY =          -2.11




         TIME SUMMARY AT END OF TIME STEP   35 IN STRESS PERIOD    2
                    SECONDS     MINUTES      HOURS       DAYS        YEARS
                    -----------------------------------------------------------
   TIME STEP LENGTH 1.03680E+06  17280.      288.00      12.000     3.28542E-02
 STRESS PERIOD TIME 3.62880E+07 6.04800E+05  10080.      420.00      1.1499    
         TOTAL TIME 3.63744E+07 6.06240E+05  10104.      421.00      1.1526    


         ****FAILED TO MEET SOLVER CONVERGENCE CRITERIA IN TIME STEP 35 OF STRESS PERIOD 2****

end timestep


start timestep kper="2" kstp="36" mode="normal"

 UBDSV1 SAVING           STO-SS ON UNIT   1027 AT TIME STEP     36, STRESS PERIOD      2
 UBDSV1 SAVING           STO-SY ON UNIT   1027 AT TIME STEP     36, STRESS PERIOD      2
 UBDSV1 SAVING     FLOW-JA-FACE ON UNIT   1027 AT TIME STEP     36, STRESS PERIOD      2
 UBDSV06 SAVING       DATA-SPDIS IN MODEL GWF_PUMPTREAT    PACKAGE NPF             CONNECTED TO MODEL GWF_PUMPTREAT    PACKAGE NPF              ON UNIT   1027 AT TIME STEP     36, STRESS PERIOD      2
 UBDSV06 SAVING              WEL IN MODEL GWF_PUMPTREAT    PACKAGE GWF_PUMPTREAT   CONNECTED TO MODEL GWF_PUMPTREAT    PACKAGE WEL-1            ON UNIT   1027 AT TIME STEP     36, STRESS PERIOD      2
 UBDSV06 SAVING              CHD IN MODEL GWF_PUMPTREAT    PACKAGE GWF_PUMPTREAT   CONNECTED TO MODEL GWF_PUMPTREAT    PACKAGE CHD-1            ON UNIT   1027 AT TIME STEP     36, STRESS PERIOD      2

 HEAD WILL BE SAVED ON UNIT 1028 AT END OF TIME STEP   36, STRESS PERIOD    2

end timestep


start timestep kper="2" kstp="37" mode="normal"

 UBDSV1 SAVING           STO-SS ON UNIT   1027 AT TIME STEP     37, STRESS PERIOD      2
 UBDSV1 SAVING           STO-SY ON UNIT   1027 AT TIME STEP     37, STRESS PERIOD      2
 UBDSV1 SAVING     FLOW-JA-FACE ON UNIT   1027 AT TIME STEP     37, STRESS PERIOD      2
 UBDSV06 SAVING       DATA-SPDIS IN MODEL GWF_PUMPTREAT    PACKAGE NPF             CONNECTED TO MODEL GWF_PUMPTREAT    PACKAGE NPF              ON UNIT   1027 AT TIME STEP     37, STRESS PERIOD      2
 UBDSV06 SAVING              WEL IN MODEL GWF_PUMPTREAT    PACKAGE GWF_PUMPTREAT   CONNECTED TO MODEL GWF_PUMPTREAT    PACKAGE WEL-1            ON UNIT   1027 AT TIME STEP     37, STRESS PERIOD      2
 UBDSV06 SAVING              CHD IN MODEL GWF_PUMPTREAT    PACKAGE GWF_PUMPTREAT   CONNECTED TO MODEL GWF_PUMPTREAT    PACKAGE CHD-1            ON UNIT   1027 AT TIME STEP     37, STRESS PERIOD      2

 HEAD WILL BE SAVED ON UNIT 1028 AT END OF TIME STEP   37, STRESS PERIOD    2

end timestep


start timestep kper="2" kstp="38" mode="normal"

 UBDSV1 SAVING           STO-SS ON UNIT   1027 AT TIME STEP     38, STRESS PERIOD      2
 UBDSV1 SAVING           STO-SY ON UNIT   1027 AT TIME STEP     38, STRESS PERIOD      2
 UBDSV1 SAVING     FLOW-JA-FACE ON UNIT   1027 AT TIME STEP     38, STRESS PERIOD      2
 UBDSV06 SAVING       DATA-SPDIS IN MODEL GWF_PUMPTREAT    PACKAGE NPF             CONNECTED TO MODEL GWF_PUMPTREAT    PACKAGE NPF              ON UNIT   1027 AT TIME STEP     38, STRESS PERIOD      2
 UBDSV06 SAVING              WEL IN MODEL GWF_PUMPTREAT    PACKAGE GWF_PUMPTREAT   CONNECTED TO MODEL GWF_PUMPTREAT    PACKAGE WEL-1            ON UNIT   1027 AT TIME STEP     38, STRESS PERIOD      2
 UBDSV06 SAVING              CHD IN MODEL GWF_PUMPTREAT    PACKAGE GWF_PUMPTREAT   CONNECTED TO MODEL GWF_PUMPTREAT    PACKAGE CHD-1            ON UNIT   1027 AT TIME STEP     38, STRESS PERIOD      2

 HEAD WILL BE SAVED ON UNIT 1028 AT END OF TIME STEP   38, STRESS PERIOD    2

end timestep


start timestep kper="2" kstp="39" mode="normal"

 UBDSV1 SAVING           STO-SS ON UNIT   1027 AT TIME STEP     39, STRESS PERIOD      2
 UBDSV1 SAVING           STO-SY ON UNIT   1027 AT TIME STEP     39, STRESS PERIOD      2
 UBDSV1 SAVING     FLOW-JA-FACE ON UNIT   1027 AT TIME STEP     39, STRESS PERIOD      2
 UBDSV06 SAVING       DATA-SPDIS IN MODEL GWF_PUMPTREAT    PACKAGE NPF             CONNECTED TO MODEL GWF_PUMPTREAT    PACKAGE NPF              ON UNIT   1027 AT TIME STEP     39, STRESS PERIOD      2
 UBDSV06 SAVING              WEL IN MODEL GWF_PUMPTREAT    PACKAGE GWF_PUMPTREAT   CONNECTED TO MODEL GWF_PUMPTREAT    PACKAGE WEL-1            ON UNIT   1027 AT TIME STEP     39, STRESS PERIOD      2
 UBDSV06 SAVING              CHD IN MODEL GWF_PUMPTREAT    PACKAGE GWF_PUMPTREAT   CONNECTED TO MODEL GWF_PUMPTREAT    PACKAGE CHD-1            ON UNIT   1027 AT TIME STEP     39, STRESS PERIOD      2

 HEAD WILL BE SAVED ON UNIT 1028 AT END OF TIME STEP   39, STRESS PERIOD    2

end timestep


start timestep kper="2" kstp="40" mode="normal"

 UBDSV1 SAVING           STO-SS ON UNIT   1027 AT TIME STEP     40, STRESS PERIOD      2
 UBDSV1 SAVING           STO-SY ON UNIT   1027 AT TIME STEP     40, STRESS PERIOD      2
 UBDSV1 SAVING     FLOW-JA-FACE ON UNIT   1027 AT TIME STEP     40, STRESS PERIOD      2
 UBDSV06 SAVING       DATA-SPDIS IN MODEL GWF_PUMPTREAT    PACKAGE NPF             CONNECTED TO MODEL GWF_PUMPTREAT    PACKAGE NPF              ON UNIT   1027 AT TIME STEP     40, STRESS PERIOD      2
 UBDSV06 SAVING              WEL IN MODEL GWF_PUMPTREAT    PACKAGE GWF_PUMPTREAT   CONNECTED TO MODEL GWF_PUMPTREAT    PACKAGE WEL-1            ON UNIT   1027 AT TIME STEP     40, STRESS PERIOD      2
 UBDSV06 SAVING              CHD IN MODEL GWF_PUMPTREAT    PACKAGE GWF_PUMPTREAT   CONNECTED TO MODEL GWF_PUMPTREAT    PACKAGE CHD-1            ON UNIT   1027 AT TIME STEP     40, STRESS PERIOD      2

 HEAD WILL BE SAVED ON UNIT 1028 AT END OF TIME STEP   40, STRESS PERIOD    2

end timestep


start timestep kper="2" kstp="41" mode="normal"

 UBDSV1 SAVING           STO-SS ON UNIT   1027 AT TIME STEP     41, STRESS PERIOD      2
 UBDSV1 SAVING           STO-SY ON UNIT   1027 AT TIME STEP     41, STRESS PERIOD      2
 UBDSV1 SAVING     FLOW-JA-FACE ON UNIT   1027 AT TIME STEP     41, STRESS PERIOD      2
 UBDSV06 SAVING       DATA-SPDIS IN MODEL GWF_PUMPTREAT    PACKAGE NPF             CONNECTED TO MODEL GWF_PUMPTREAT    PACKAGE NPF              ON UNIT   1027 AT TIME STEP     41, STRESS PERIOD      2
 UBDSV06 SAVING              WEL IN MODEL GWF_PUMPTREAT    PACKAGE GWF_PUMPTREAT   CONNECTED TO MODEL GWF_PUMPTREAT    PACKAGE WEL-1            ON UNIT   1027 AT TIME STEP     41, STRESS PERIOD      2
 UBDSV06 SAVING              CHD IN MODEL GWF_PUMPTREAT    PACKAGE GWF_PUMPTREAT   CONNECTED TO MODEL GWF_PUMPTREAT    PACKAGE CHD-1            ON UNIT   1027 AT TIME STEP     41, STRESS PERIOD      2

 HEAD WILL BE SAVED ON UNIT 1028 AT END OF TIME STEP   41, STRESS PERIOD    2

end timestep


start timestep kper="2" kstp="42" mode="normal"

 UBDSV1 SAVING           STO-SS ON UNIT   1027 AT TIME STEP     42, STRESS PERIOD      2
 UBDSV1 SAVING           STO-SY ON UNIT   1027 AT TIME STEP     42, STRESS PERIOD      2
 UBDSV1 SAVING     FLOW-JA-FACE ON UNIT   1027 AT TIME STEP     42, STRESS PERIOD      2
 UBDSV06 SAVING       DATA-SPDIS IN MODEL GWF_PUMPTREAT    PACKAGE NPF             CONNECTED TO MODEL GWF_PUMPTREAT    PACKAGE NPF              ON UNIT   1027 AT TIME STEP     42, STRESS PERIOD      2
 UBDSV06 SAVING              WEL IN MODEL GWF_PUMPTREAT    PACKAGE GWF_PUMPTREAT   CONNECTED TO MODEL GWF_PUMPTREAT    PACKAGE WEL-1            ON UNIT   1027 AT TIME STEP     42, STRESS PERIOD      2
 UBDSV06 SAVING              CHD IN MODEL GWF_PUMPTREAT    PACKAGE GWF_PUMPTREAT   CONNECTED TO MODEL GWF_PUMPTREAT    PACKAGE CHD-1            ON UNIT   1027 AT TIME STEP     42, STRESS PERIOD      2

 HEAD WILL BE SAVED ON UNIT 1028 AT END OF TIME STEP   42, STRESS PERIOD    2

end timestep


start timestep kper="2" kstp="43" mode="normal"

 UBDSV1 SAVING           STO-SS ON UNIT   1027 AT TIME STEP     43, STRESS PERIOD      2
 UBDSV1 SAVING           STO-SY ON UNIT   1027 AT TIME STEP     43, STRESS PERIOD      2
 UBDSV1 SAVING     FLOW-JA-FACE ON UNIT   1027 AT TIME STEP     43, STRESS PERIOD      2
 UBDSV06 SAVING       DATA-SPDIS IN MODEL GWF_PUMPTREAT    PACKAGE NPF             CONNECTED TO MODEL GWF_PUMPTREAT    PACKAGE NPF              ON UNIT   1027 AT TIME STEP     43, STRESS PERIOD      2
 UBDSV06 SAVING              WEL IN MODEL GWF_PUMPTREAT    PACKAGE GWF_PUMPTREAT   CONNECTED TO MODEL GWF_PUMPTREAT    PACKAGE WEL-1            ON UNIT   1027 AT TIME STEP     43, STRESS PERIOD      2
 UBDSV06 SAVING              CHD IN MODEL GWF_PUMPTREAT    PACKAGE GWF_PUMPTREAT   CONNECTED TO MODEL GWF_PUMPTREAT    PACKAGE CHD-1            ON UNIT   1027 AT TIME STEP     43, STRESS PERIOD      2

 HEAD WILL BE SAVED ON UNIT 1028 AT END OF TIME STEP   43, STRESS PERIOD    2

end timestep


start timestep kper="2" kstp="44" mode="normal"

 UBDSV1 SAVING           STO-SS ON UNIT   1027 AT TIME STEP     44, STRESS PERIOD      2
 UBDSV1 SAVING           STO-SY ON UNIT   1027 AT TIME STEP     44, STRESS PERIOD      2
 UBDSV1 SAVING     FLOW-JA-FACE ON UNIT   1027 AT TIME STEP     44, STRESS PERIOD      2
 UBDSV06 SAVING       DATA-SPDIS IN MODEL GWF_PUMPTREAT    PACKAGE NPF             CONNECTED TO MODEL GWF_PUMPTREAT    PACKAGE NPF              ON UNIT   1027 AT TIME STEP     44, STRESS PERIOD      2
 UBDSV06 SAVING              WEL IN MODEL GWF_PUMPTREAT    PACKAGE GWF_PUMPTREAT   CONNECTED TO MODEL GWF_PUMPTREAT    PACKAGE WEL-1            ON UNIT   1027 AT TIME STEP     44, STRESS PERIOD      2
 UBDSV06 SAVING              CHD IN MODEL GWF_PUMPTREAT    PACKAGE GWF_PUMPTREAT   CONNECTED TO MODEL GWF_PUMPTREAT    PACKAGE CHD-1            ON UNIT   1027 AT TIME STEP     44, STRESS PERIOD      2

 HEAD WILL BE SAVED ON UNIT 1028 AT END OF TIME STEP   44, STRESS PERIOD    2

end timestep


start timestep kper="2" kstp="45" mode="normal"

 UBDSV1 SAVING           STO-SS ON UNIT   1027 AT TIME STEP     45, STRESS PERIOD      2
 UBDSV1 SAVING           STO-SY ON UNIT   1027 AT TIME STEP     45, STRESS PERIOD      2
 UBDSV1 SAVING     FLOW-JA-FACE ON UNIT   1027 AT TIME STEP     45, STRESS PERIOD      2
 UBDSV06 SAVING       DATA-SPDIS IN MODEL GWF_PUMPTREAT    PACKAGE NPF             CONNECTED TO MODEL GWF_PUMPTREAT    PACKAGE NPF              ON UNIT   1027 AT TIME STEP     45, STRESS PERIOD      2
 UBDSV06 SAVING              WEL IN MODEL GWF_PUMPTREAT    PACKAGE GWF_PUMPTREAT   CONNECTED TO MODEL GWF_PUMPTREAT    PACKAGE WEL-1            ON UNIT   1027 AT TIME STEP     45, STRESS PERIOD      2
 UBDSV06 SAVING              CHD IN MODEL GWF_PUMPTREAT    PACKAGE GWF_PUMPTREAT   CONNECTED TO MODEL GWF_PUMPTREAT    PACKAGE CHD-1            ON UNIT   1027 AT TIME STEP     45, STRESS PERIOD      2

 HEAD WILL BE SAVED ON UNIT 1028 AT END OF TIME STEP   45, STRESS PERIOD    2

end timestep


start timestep kper="2" kstp="46" mode="normal"

 UBDSV1 SAVING           STO-SS ON UNIT   1027 AT TIME STEP     46, STRESS PERIOD      2
 UBDSV1 SAVING           STO-SY ON UNIT   1027 AT TIME STEP     46, STRESS PERIOD      2
 UBDSV1 SAVING     FLOW-JA-FACE ON UNIT   1027 AT TIME STEP     46, STRESS PERIOD      2
 UBDSV06 SAVING       DATA-SPDIS IN MODEL GWF_PUMPTREAT    PACKAGE NPF             CONNECTED TO MODEL GWF_PUMPTREAT    PACKAGE NPF              ON UNIT   1027 AT TIME STEP     46, STRESS PERIOD      2
 UBDSV06 SAVING              WEL IN MODEL GWF_PUMPTREAT    PACKAGE GWF_PUMPTREAT   CONNECTED TO MODEL GWF_PUMPTREAT    PACKAGE WEL-1            ON UNIT   1027 AT TIME STEP     46, STRESS PERIOD      2
 UBDSV06 SAVING              CHD IN MODEL GWF_PUMPTREAT    PACKAGE GWF_PUMPTREAT   CONNECTED TO MODEL GWF_PUMPTREAT    PACKAGE CHD-1            ON UNIT   1027 AT TIME STEP     46, STRESS PERIOD      2

 HEAD WILL BE SAVED ON UNIT 1028 AT END OF TIME STEP   46, STRESS PERIOD    2

end timestep


start timestep kper="2" kstp="47" mode="normal"

 UBDSV1 SAVING           STO-SS ON UNIT   1027 AT TIME STEP     47, STRESS PERIOD      2
 UBDSV1 SAVING           STO-SY ON UNIT   1027 AT TIME STEP     47, STRESS PERIOD      2
 UBDSV1 SAVING     FLOW-JA-FACE ON UNIT   1027 AT TIME STEP     47, STRESS PERIOD      2
 UBDSV06 SAVING       DATA-SPDIS IN MODEL GWF_PUMPTREAT    PACKAGE NPF             CONNECTED TO MODEL GWF_PUMPTREAT    PACKAGE NPF              ON UNIT   1027 AT TIME STEP     47, STRESS PERIOD      2
 UBDSV06 SAVING              WEL IN MODEL GWF_PUMPTREAT    PACKAGE GWF_PUMPTREAT   CONNECTED TO MODEL GWF_PUMPTREAT    PACKAGE WEL-1            ON UNIT   1027 AT TIME STEP     47, STRESS PERIOD      2
 UBDSV06 SAVING              CHD IN MODEL GWF_PUMPTREAT    PACKAGE GWF_PUMPTREAT   CONNECTED TO MODEL GWF_PUMPTREAT    PACKAGE CHD-1            ON UNIT   1027 AT TIME STEP     47, STRESS PERIOD      2

 HEAD WILL BE SAVED ON UNIT 1028 AT END OF TIME STEP   47, STRESS PERIOD    2


  VOLUME BUDGET FOR ENTIRE MODEL AT END OF TIME STEP   47, STRESS PERIOD   2
  ---------------------------------------------------------------------------------------------------

     CUMULATIVE VOLUME      L**3       RATES FOR THIS TIME STEP      L**3/T          PACKAGE NAME    
     ------------------                 ------------------------                     ----------------

           IN:                                      IN:
           ---                                      ---
              STO-SS =           2.6333                STO-SS =           0.1044     STORAGE                          
              STO-SY =           0.0000                STO-SY =           0.0000     STORAGE                          
                 WEL =           0.0000                   WEL =           0.0000     WEL-1                            
                 CHD =       27429.7161                   CHD =         135.6064     CHD-1                            

            TOTAL IN =       27432.3495              TOTAL IN =         135.7108

          OUT:                                     OUT:
          ----                                     ----
              STO-SS =           2.7627                STO-SS =           0.0000     STORAGE                          
              STO-SY =           0.0000                STO-SY =           0.0000     STORAGE                          
                 WEL =       21263.6975                   WEL =         143.4081     WEL-1                            
                 CHD =        6170.7370                   CHD =           0.0000     CHD-1                            

           TOTAL OUT =       27437.1972             TOTAL OUT =         143.4081

            IN - OUT =          -4.8478              IN - OUT =          -7.6973

 PERCENT DISCREPANCY =          -0.02     PERCENT DISCREPANCY =          -5.52




         TIME SUMMARY AT END OF TIME STEP   47 IN STRESS PERIOD    2
                    SECONDS     MINUTES      HOURS       DAYS        YEARS
                    -----------------------------------------------------------
   TIME STEP LENGTH 1.03680E+06  17280.      288.00      12.000     3.28542E-02
 STRESS PERIOD TIME 4.87296E+07 8.12160E+05  13536.      564.00      1.5441    
         TOTAL TIME 4.88160E+07 8.13600E+05  13560.      565.00      1.5469    


         ****FAILED TO MEET SOLVER CONVERGENCE CRITERIA IN TIME STEP 47 OF STRESS PERIOD 2****

end timestep


start timestep kper="2" kstp="48" mode="normal"

 UBDSV1 SAVING           STO-SS ON UNIT   1027 AT TIME STEP     48, STRESS PERIOD      2
 UBDSV1 SAVING           STO-SY ON UNIT   1027 AT TIME STEP     48, STRESS PERIOD      2
 UBDSV1 SAVING     FLOW-JA-FACE ON UNIT   1027 AT TIME STEP     48, STRESS PERIOD      2
 UBDSV06 SAVING       DATA-SPDIS IN MODEL GWF_PUMPTREAT    PACKAGE NPF             CONNECTED TO MODEL GWF_PUMPTREAT    PACKAGE NPF              ON UNIT   1027 AT TIME STEP     48, STRESS PERIOD      2
 UBDSV06 SAVING              WEL IN MODEL GWF_PUMPTREAT    PACKAGE GWF_PUMPTREAT   CONNECTED TO MODEL GWF_PUMPTREAT    PACKAGE WEL-1            ON UNIT   1027 AT TIME STEP     48, STRESS PERIOD      2
 UBDSV06 SAVING              CHD IN MODEL GWF_PUMPTREAT    PACKAGE GWF_PUMPTREAT   CONNECTED TO MODEL GWF_PUMPTREAT    PACKAGE CHD-1            ON UNIT   1027 AT TIME STEP     48, STRESS PERIOD      2

 HEAD WILL BE SAVED ON UNIT 1028 AT END OF TIME STEP   48, STRESS PERIOD    2

end timestep


start timestep kper="2" kstp="49" mode="normal"

 UBDSV1 SAVING           STO-SS ON UNIT   1027 AT TIME STEP     49, STRESS PERIOD      2
 UBDSV1 SAVING           STO-SY ON UNIT   1027 AT TIME STEP     49, STRESS PERIOD      2
 UBDSV1 SAVING     FLOW-JA-FACE ON UNIT   1027 AT TIME STEP     49, STRESS PERIOD      2
 UBDSV06 SAVING       DATA-SPDIS IN MODEL GWF_PUMPTREAT    PACKAGE NPF             CONNECTED TO MODEL GWF_PUMPTREAT    PACKAGE NPF              ON UNIT   1027 AT TIME STEP     49, STRESS PERIOD      2
 UBDSV06 SAVING              WEL IN MODEL GWF_PUMPTREAT    PACKAGE GWF_PUMPTREAT   CONNECTED TO MODEL GWF_PUMPTREAT    PACKAGE WEL-1            ON UNIT   1027 AT TIME STEP     49, STRESS PERIOD      2
 UBDSV06 SAVING              CHD IN MODEL GWF_PUMPTREAT    PACKAGE GWF_PUMPTREAT   CONNECTED TO MODEL GWF_PUMPTREAT    PACKAGE CHD-1            ON UNIT   1027 AT TIME STEP     49, STRESS PERIOD      2

 HEAD WILL BE SAVED ON UNIT 1028 AT END OF TIME STEP   49, STRESS PERIOD    2

end timestep


start timestep kper="2" kstp="50" mode="normal"

 UBDSV1 SAVING           STO-SS ON UNIT   1027 AT TIME STEP     50, STRESS PERIOD      2
 UBDSV1 SAVING           STO-SY ON UNIT   1027 AT TIME STEP     50, STRESS PERIOD      2
 UBDSV1 SAVING     FLOW-JA-FACE ON UNIT   1027 AT TIME STEP     50, STRESS PERIOD      2
 UBDSV06 SAVING       DATA-SPDIS IN MODEL GWF_PUMPTREAT    PACKAGE NPF             CONNECTED TO MODEL GWF_PUMPTREAT    PACKAGE NPF              ON UNIT   1027 AT TIME STEP     50, STRESS PERIOD      2
 UBDSV06 SAVING              WEL IN MODEL GWF_PUMPTREAT    PACKAGE GWF_PUMPTREAT   CONNECTED TO MODEL GWF_PUMPTREAT    PACKAGE WEL-1            ON UNIT   1027 AT TIME STEP     50, STRESS PERIOD      2
 UBDSV06 SAVING              CHD IN MODEL GWF_PUMPTREAT    PACKAGE GWF_PUMPTREAT   CONNECTED TO MODEL GWF_PUMPTREAT    PACKAGE CHD-1            ON UNIT   1027 AT TIME STEP     50, STRESS PERIOD      2

 HEAD WILL BE SAVED ON UNIT 1028 AT END OF TIME STEP   50, STRESS PERIOD    2

end timestep


start timestep kper="2" kstp="51" mode="normal"

 UBDSV1 SAVING           STO-SS ON UNIT   1027 AT TIME STEP     51, STRESS PERIOD      2
 UBDSV1 SAVING           STO-SY ON UNIT   1027 AT TIME STEP     51, STRESS PERIOD      2
 UBDSV1 SAVING     FLOW-JA-FACE ON UNIT   1027 AT TIME STEP     51, STRESS PERIOD      2
 UBDSV06 SAVING       DATA-SPDIS IN MODEL GWF_PUMPTREAT    PACKAGE NPF             CONNECTED TO MODEL GWF_PUMPTREAT    PACKAGE NPF              ON UNIT   1027 AT TIME STEP     51, STRESS PERIOD      2
 UBDSV06 SAVING              WEL IN MODEL GWF_PUMPTREAT    PACKAGE GWF_PUMPTREAT   CONNECTED TO MODEL GWF_PUMPTREAT    PACKAGE WEL-1            ON UNIT   1027 AT TIME STEP     51, STRESS PERIOD      2
 UBDSV06 SAVING              CHD IN MODEL GWF_PUMPTREAT    PACKAGE GWF_PUMPTREAT   CONNECTED TO MODEL GWF_PUMPTREAT    PACKAGE CHD-1            ON UNIT   1027 AT TIME STEP     51, STRESS PERIOD      2

 HEAD WILL BE SAVED ON UNIT 1028 AT END OF TIME STEP   51, STRESS PERIOD    2

end timestep


start timestep kper="2" kstp="52" mode="normal"

 UBDSV1 SAVING           STO-SS ON UNIT   1027 AT TIME STEP     52, STRESS PERIOD      2
 UBDSV1 SAVING           STO-SY ON UNIT   1027 AT TIME STEP     52, STRESS PERIOD      2
 UBDSV1 SAVING     FLOW-JA-FACE ON UNIT   1027 AT TIME STEP     52, STRESS PERIOD      2
 UBDSV06 SAVING       DATA-SPDIS IN MODEL GWF_PUMPTREAT    PACKAGE NPF             CONNECTED TO MODEL GWF_PUMPTREAT    PACKAGE NPF              ON UNIT   1027 AT TIME STEP     52, STRESS PERIOD      2
 UBDSV06 SAVING              WEL IN MODEL GWF_PUMPTREAT    PACKAGE GWF_PUMPTREAT   CONNECTED TO MODEL GWF_PUMPTREAT    PACKAGE WEL-1            ON UNIT   1027 AT TIME STEP     52, STRESS PERIOD      2
 UBDSV06 SAVING              CHD IN MODEL GWF_PUMPTREAT    PACKAGE GWF_PUMPTREAT   CONNECTED TO MODEL GWF_PUMPTREAT    PACKAGE CHD-1            ON UNIT   1027 AT TIME STEP     52, STRESS PERIOD      2

 HEAD WILL BE SAVED ON UNIT 1028 AT END OF TIME STEP   52, STRESS PERIOD    2


  VOLUME BUDGET FOR ENTIRE MODEL AT END OF TIME STEP   52, STRESS PERIOD   2
  ---------------------------------------------------------------------------------------------------

     CUMULATIVE VOLUME      L**3       RATES FOR THIS TIME STEP      L**3/T          PACKAGE NAME    
     ------------------                 ------------------------                     ----------------

           IN:                                      IN:
           ---                                      ---
              STO-SS =           4.0194                STO-SS =           0.1044     STORAGE                          
              STO-SY =           0.0000                STO-SY =           0.0000     STORAGE                          
                 WEL =           0.0000                   WEL =           0.0000     WEL-1                            
                 CHD =       34644.3076                   CHD =         135.6064     CHD-1                            

            TOTAL IN =       34648.3270              TOTAL IN =         135.7108

          OUT:                                     OUT:
          ----                                     ----
              STO-SS =           4.1488                STO-SS =           0.0000     STORAGE                          
              STO-SY =           0.0000                STO-SY =           0.0000     STORAGE                          
                 WEL =       28388.8871                   WEL =         143.4081     WEL-1                            
                 CHD =        6344.0087                   CHD =           0.0000     CHD-1                            

           TOTAL OUT =       34737.0446             TOTAL OUT =         143.4081

            IN - OUT =         -88.7176              IN - OUT =          -7.6973

 PERCENT DISCREPANCY =          -0.26     PERCENT DISCREPANCY =          -5.52




         TIME SUMMARY AT END OF TIME STEP   52 IN STRESS PERIOD    2
                    SECONDS     MINUTES      HOURS       DAYS        YEARS
                    -----------------------------------------------------------
   TIME STEP LENGTH 1.03680E+06  17280.      288.00      12.000     3.28542E-02
 STRESS PERIOD TIME 5.39136E+07 8.98560E+05  14976.      624.00      1.7084    
         TOTAL TIME 5.40000E+07 9.00000E+05  15000.      625.00      1.7112    


         ****FAILED TO MEET SOLVER CONVERGENCE CRITERIA IN TIME STEP 52 OF STRESS PERIOD 2****

end timestep


start timestep kper="2" kstp="53" mode="normal"

 UBDSV1 SAVING           STO-SS ON UNIT   1027 AT TIME STEP     53, STRESS PERIOD      2
 UBDSV1 SAVING           STO-SY ON UNIT   1027 AT TIME STEP     53, STRESS PERIOD      2
 UBDSV1 SAVING     FLOW-JA-FACE ON UNIT   1027 AT TIME STEP     53, STRESS PERIOD      2
 UBDSV06 SAVING       DATA-SPDIS IN MODEL GWF_PUMPTREAT    PACKAGE NPF             CONNECTED TO MODEL GWF_PUMPTREAT    PACKAGE NPF              ON UNIT   1027 AT TIME STEP     53, STRESS PERIOD      2
 UBDSV06 SAVING              WEL IN MODEL GWF_PUMPTREAT    PACKAGE GWF_PUMPTREAT   CONNECTED TO MODEL GWF_PUMPTREAT    PACKAGE WEL-1            ON UNIT   1027 AT TIME STEP     53, STRESS PERIOD      2
 UBDSV06 SAVING              CHD IN MODEL GWF_PUMPTREAT    PACKAGE GWF_PUMPTREAT   CONNECTED TO MODEL GWF_PUMPTREAT    PACKAGE CHD-1            ON UNIT   1027 AT TIME STEP     53, STRESS PERIOD      2

 HEAD WILL BE SAVED ON UNIT 1028 AT END OF TIME STEP   53, STRESS PERIOD    2

end timestep


start timestep kper="2" kstp="54" mode="normal"

 UBDSV1 SAVING           STO-SS ON UNIT   1027 AT TIME STEP     54, STRESS PERIOD      2
 UBDSV1 SAVING           STO-SY ON UNIT   1027 AT TIME STEP     54, STRESS PERIOD      2
 UBDSV1 SAVING     FLOW-JA-FACE ON UNIT   1027 AT TIME STEP     54, STRESS PERIOD      2
 UBDSV06 SAVING       DATA-SPDIS IN MODEL GWF_PUMPTREAT    PACKAGE NPF             CONNECTED TO MODEL GWF_PUMPTREAT    PACKAGE NPF              ON UNIT   1027 AT TIME STEP     54, STRESS PERIOD      2
 UBDSV06 SAVING              WEL IN MODEL GWF_PUMPTREAT    PACKAGE GWF_PUMPTREAT   CONNECTED TO MODEL GWF_PUMPTREAT    PACKAGE WEL-1            ON UNIT   1027 AT TIME STEP     54, STRESS PERIOD      2
 UBDSV06 SAVING              CHD IN MODEL GWF_PUMPTREAT    PACKAGE GWF_PUMPTREAT   CONNECTED TO MODEL GWF_PUMPTREAT    PACKAGE CHD-1            ON UNIT   1027 AT TIME STEP     54, STRESS PERIOD      2

 HEAD WILL BE SAVED ON UNIT 1028 AT END OF TIME STEP   54, STRESS PERIOD    2

end timestep


start timestep kper="2" kstp="55" mode="normal"

 UBDSV1 SAVING           STO-SS ON UNIT   1027 AT TIME STEP     55, STRESS PERIOD      2
 UBDSV1 SAVING           STO-SY ON UNIT   1027 AT TIME STEP     55, STRESS PERIOD      2
 UBDSV1 SAVING     FLOW-JA-FACE ON UNIT   1027 AT TIME STEP     55, STRESS PERIOD      2
 UBDSV06 SAVING       DATA-SPDIS IN MODEL GWF_PUMPTREAT    PACKAGE NPF             CONNECTED TO MODEL GWF_PUMPTREAT    PACKAGE NPF              ON UNIT   1027 AT TIME STEP     55, STRESS PERIOD      2
 UBDSV06 SAVING              WEL IN MODEL GWF_PUMPTREAT    PACKAGE GWF_PUMPTREAT   CONNECTED TO MODEL GWF_PUMPTREAT    PACKAGE WEL-1            ON UNIT   1027 AT TIME STEP     55, STRESS PERIOD      2
 UBDSV06 SAVING              CHD IN MODEL GWF_PUMPTREAT    PACKAGE GWF_PUMPTREAT   CONNECTED TO MODEL GWF_PUMPTREAT    PACKAGE CHD-1            ON UNIT   1027 AT TIME STEP     55, STRESS PERIOD      2

 HEAD WILL BE SAVED ON UNIT 1028 AT END OF TIME STEP   55, STRESS PERIOD    2

end timestep


start timestep kper="2" kstp="56" mode="normal"

 UBDSV1 SAVING           STO-SS ON UNIT   1027 AT TIME STEP     56, STRESS PERIOD      2
 UBDSV1 SAVING           STO-SY ON UNIT   1027 AT TIME STEP     56, STRESS PERIOD      2
 UBDSV1 SAVING     FLOW-JA-FACE ON UNIT   1027 AT TIME STEP     56, STRESS PERIOD      2
 UBDSV06 SAVING       DATA-SPDIS IN MODEL GWF_PUMPTREAT    PACKAGE NPF             CONNECTED TO MODEL GWF_PUMPTREAT    PACKAGE NPF              ON UNIT   1027 AT TIME STEP     56, STRESS PERIOD      2
 UBDSV06 SAVING              WEL IN MODEL GWF_PUMPTREAT    PACKAGE GWF_PUMPTREAT   CONNECTED TO MODEL GWF_PUMPTREAT    PACKAGE WEL-1            ON UNIT   1027 AT TIME STEP     56, STRESS PERIOD      2
 UBDSV06 SAVING              CHD IN MODEL GWF_PUMPTREAT    PACKAGE GWF_PUMPTREAT   CONNECTED TO MODEL GWF_PUMPTREAT    PACKAGE CHD-1            ON UNIT   1027 AT TIME STEP     56, STRESS PERIOD      2

 HEAD WILL BE SAVED ON UNIT 1028 AT END OF TIME STEP   56, STRESS PERIOD    2

end timestep


start timestep kper="2" kstp="57" mode="normal"

 UBDSV1 SAVING           STO-SS ON UNIT   1027 AT TIME STEP     57, STRESS PERIOD      2
 UBDSV1 SAVING           STO-SY ON UNIT   1027 AT TIME STEP     57, STRESS PERIOD      2
 UBDSV1 SAVING     FLOW-JA-FACE ON UNIT   1027 AT TIME STEP     57, STRESS PERIOD      2
 UBDSV06 SAVING       DATA-SPDIS IN MODEL GWF_PUMPTREAT    PACKAGE NPF             CONNECTED TO MODEL GWF_PUMPTREAT    PACKAGE NPF              ON UNIT   1027 AT TIME STEP     57, STRESS PERIOD      2
 UBDSV06 SAVING              WEL IN MODEL GWF_PUMPTREAT    PACKAGE GWF_PUMPTREAT   CONNECTED TO MODEL GWF_PUMPTREAT    PACKAGE WEL-1            ON UNIT   1027 AT TIME STEP     57, STRESS PERIOD      2
 UBDSV06 SAVING              CHD IN MODEL GWF_PUMPTREAT    PACKAGE GWF_PUMPTREAT   CONNECTED TO MODEL GWF_PUMPTREAT    PACKAGE CHD-1            ON UNIT   1027 AT TIME STEP     57, STRESS PERIOD      2

 HEAD WILL BE SAVED ON UNIT 1028 AT END OF TIME STEP   57, STRESS PERIOD    2


  VOLUME BUDGET FOR ENTIRE MODEL AT END OF TIME STEP   57, STRESS PERIOD   2
  ---------------------------------------------------------------------------------------------------

     CUMULATIVE VOLUME      L**3       RATES FOR THIS TIME STEP      L**3/T          PACKAGE NAME    
     ------------------                 ------------------------                     ----------------

           IN:                                      IN:
           ---                                      ---
              STO-SS =           5.4055                STO-SS =           0.1044     STORAGE                          
              STO-SY =           0.0000                STO-SY =           0.0000     STORAGE                          
                 WEL =           0.0000                   WEL =           0.0000     WEL-1                            
                 CHD =       41858.8991                   CHD =         135.6064     CHD-1                            

            TOTAL IN =       41864.3046              TOTAL IN =         135.7108

          OUT:                                     OUT:
          ----                                     ----
              STO-SS =           5.5349                STO-SS =           0.0000     STORAGE                          
              STO-SY =           0.0000                STO-SY =           0.0000     STORAGE                          
                 WEL =       35514.0767                   WEL =         143.4081     WEL-1                            
                 CHD =        6517.2805                   CHD =           0.0000     CHD-1                            

           TOTAL OUT =       42036.8920             TOTAL OUT =         143.4081

            IN - OUT =        -172.5874              IN - OUT =          -7.6973

 PERCENT DISCREPANCY =          -0.41     PERCENT DISCREPANCY =          -5.52




         TIME SUMMARY AT END OF TIME STEP   57 IN STRESS PERIOD    2
                    SECONDS     MINUTES      HOURS       DAYS        YEARS
                    -----------------------------------------------------------
   TIME STEP LENGTH 1.03680E+06  17280.      288.00      12.000     3.28542E-02
 STRESS PERIOD TIME 5.90976E+07 9.84960E+05  16416.      684.00      1.8727    
         TOTAL TIME 5.91840E+07 9.86400E+05  16440.      685.00      1.8754    


         ****FAILED TO MEET SOLVER CONVERGENCE CRITERIA IN TIME STEP 57 OF STRESS PERIOD 2****

end timestep


start timestep kper="2" kstp="58" mode="normal"

 UBDSV1 SAVING           STO-SS ON UNIT   1027 AT TIME STEP     58, STRESS PERIOD      2
 UBDSV1 SAVING           STO-SY ON UNIT   1027 AT TIME STEP     58, STRESS PERIOD      2
 UBDSV1 SAVING     FLOW-JA-FACE ON UNIT   1027 AT TIME STEP     58, STRESS PERIOD      2
 UBDSV06 SAVING       DATA-SPDIS IN MODEL GWF_PUMPTREAT    PACKAGE NPF             CONNECTED TO MODEL GWF_PUMPTREAT    PACKAGE NPF              ON UNIT   1027 AT TIME STEP     58, STRESS PERIOD      2
 UBDSV06 SAVING              WEL IN MODEL GWF_PUMPTREAT    PACKAGE GWF_PUMPTREAT   CONNECTED TO MODEL GWF_PUMPTREAT    PACKAGE WEL-1            ON UNIT   1027 AT TIME STEP     58, STRESS PERIOD      2
 UBDSV06 SAVING              CHD IN MODEL GWF_PUMPTREAT    PACKAGE GWF_PUMPTREAT   CONNECTED TO MODEL GWF_PUMPTREAT    PACKAGE CHD-1            ON UNIT   1027 AT TIME STEP     58, STRESS PERIOD      2

 HEAD WILL BE SAVED ON UNIT 1028 AT END OF TIME STEP   58, STRESS PERIOD    2

end timestep


start timestep kper="2" kstp="59" mode="normal"

 UBDSV1 SAVING           STO-SS ON UNIT   1027 AT TIME STEP     59, STRESS PERIOD      2
 UBDSV1 SAVING           STO-SY ON UNIT   1027 AT TIME STEP     59, STRESS PERIOD      2
 UBDSV1 SAVING     FLOW-JA-FACE ON UNIT   1027 AT TIME STEP     59, STRESS PERIOD      2
 UBDSV06 SAVING       DATA-SPDIS IN MODEL GWF_PUMPTREAT    PACKAGE NPF             CONNECTED TO MODEL GWF_PUMPTREAT    PACKAGE NPF              ON UNIT   1027 AT TIME STEP     59, STRESS PERIOD      2
[...]
 UBDSV06 SAVING              WEL IN MODEL GWF_PUMPTREAT    PACKAGE GWF_PUMPTREAT   CONNECTED TO MODEL GWF_PUMPTREAT    PACKAGE WEL-1            ON UNIT   1027 AT TIME STEP    238, STRESS PERIOD      2
 UBDSV06 SAVING              CHD IN MODEL GWF_PUMPTREAT    PACKAGE GWF_PUMPTREAT   CONNECTED TO MODEL GWF_PUMPTREAT    PACKAGE CHD-1            ON UNIT   1027 AT TIME STEP    238, STRESS PERIOD      2

 HEAD WILL BE SAVED ON UNIT 1028 AT END OF TIME STEP  238, STRESS PERIOD    2

end timestep


start timestep kper="2" kstp="239" mode="normal"

 UBDSV1 SAVING           STO-SS ON UNIT   1027 AT TIME STEP    239, STRESS PERIOD      2
 UBDSV1 SAVING           STO-SY ON UNIT   1027 AT TIME STEP    239, STRESS PERIOD      2
 UBDSV1 SAVING     FLOW-JA-FACE ON UNIT   1027 AT TIME STEP    239, STRESS PERIOD      2
 UBDSV06 SAVING       DATA-SPDIS IN MODEL GWF_PUMPTREAT    PACKAGE NPF             CONNECTED TO MODEL GWF_PUMPTREAT    PACKAGE NPF              ON UNIT   1027 AT TIME STEP    239, STRESS PERIOD      2
 UBDSV06 SAVING              WEL IN MODEL GWF_PUMPTREAT    PACKAGE GWF_PUMPTREAT   CONNECTED TO MODEL GWF_PUMPTREAT    PACKAGE WEL-1            ON UNIT   1027 AT TIME STEP    239, STRESS PERIOD      2
 UBDSV06 SAVING              CHD IN MODEL GWF_PUMPTREAT    PACKAGE GWF_PUMPTREAT   CONNECTED TO MODEL GWF_PUMPTREAT    PACKAGE CHD-1            ON UNIT   1027 AT TIME STEP    239, STRESS PERIOD      2

 HEAD WILL BE SAVED ON UNIT 1028 AT END OF TIME STEP  239, STRESS PERIOD    2

end timestep


start timestep kper="2" kstp="240" mode="normal"

 UBDSV1 SAVING           STO-SS ON UNIT   1027 AT TIME STEP    240, STRESS PERIOD      2
 UBDSV1 SAVING           STO-SY ON UNIT   1027 AT TIME STEP    240, STRESS PERIOD      2
 UBDSV1 SAVING     FLOW-JA-FACE ON UNIT   1027 AT TIME STEP    240, STRESS PERIOD      2
 UBDSV06 SAVING       DATA-SPDIS IN MODEL GWF_PUMPTREAT    PACKAGE NPF             CONNECTED TO MODEL GWF_PUMPTREAT    PACKAGE NPF              ON UNIT   1027 AT TIME STEP    240, STRESS PERIOD      2
 UBDSV06 SAVING              WEL IN MODEL GWF_PUMPTREAT    PACKAGE GWF_PUMPTREAT   CONNECTED TO MODEL GWF_PUMPTREAT    PACKAGE WEL-1            ON UNIT   1027 AT TIME STEP    240, STRESS PERIOD      2
 UBDSV06 SAVING              CHD IN MODEL GWF_PUMPTREAT    PACKAGE GWF_PUMPTREAT   CONNECTED TO MODEL GWF_PUMPTREAT    PACKAGE CHD-1            ON UNIT   1027 AT TIME STEP    240, STRESS PERIOD      2

 HEAD WILL BE SAVED ON UNIT 1028 AT END OF TIME STEP  240, STRESS PERIOD    2

end timestep


start timestep kper="2" kstp="241" mode="normal"

 UBDSV1 SAVING           STO-SS ON UNIT   1027 AT TIME STEP    241, STRESS PERIOD      2
 UBDSV1 SAVING           STO-SY ON UNIT   1027 AT TIME STEP    241, STRESS PERIOD      2
 UBDSV1 SAVING     FLOW-JA-FACE ON UNIT   1027 AT TIME STEP    241, STRESS PERIOD      2
 UBDSV06 SAVING       DATA-SPDIS IN MODEL GWF_PUMPTREAT    PACKAGE NPF             CONNECTED TO MODEL GWF_PUMPTREAT    PACKAGE NPF              ON UNIT   1027 AT TIME STEP    241, STRESS PERIOD      2
 UBDSV06 SAVING              WEL IN MODEL GWF_PUMPTREAT    PACKAGE GWF_PUMPTREAT   CONNECTED TO MODEL GWF_PUMPTREAT    PACKAGE WEL-1            ON UNIT   1027 AT TIME STEP    241, STRESS PERIOD      2
 UBDSV06 SAVING              CHD IN MODEL GWF_PUMPTREAT    PACKAGE GWF_PUMPTREAT   CONNECTED TO MODEL GWF_PUMPTREAT    PACKAGE CHD-1            ON UNIT   1027 AT TIME STEP    241, STRESS PERIOD      2

 HEAD WILL BE SAVED ON UNIT 1028 AT END OF TIME STEP  241, STRESS PERIOD    2

end timestep


start timestep kper="2" kstp="242" mode="normal"

 UBDSV1 SAVING           STO-SS ON UNIT   1027 AT TIME STEP    242, STRESS PERIOD      2
 UBDSV1 SAVING           STO-SY ON UNIT   1027 AT TIME STEP    242, STRESS PERIOD      2
 UBDSV1 SAVING     FLOW-JA-FACE ON UNIT   1027 AT TIME STEP    242, STRESS PERIOD      2
 UBDSV06 SAVING       DATA-SPDIS IN MODEL GWF_PUMPTREAT    PACKAGE NPF             CONNECTED TO MODEL GWF_PUMPTREAT    PACKAGE NPF              ON UNIT   1027 AT TIME STEP    242, STRESS PERIOD      2
 UBDSV06 SAVING              WEL IN MODEL GWF_PUMPTREAT    PACKAGE GWF_PUMPTREAT   CONNECTED TO MODEL GWF_PUMPTREAT    PACKAGE WEL-1            ON UNIT   1027 AT TIME STEP    242, STRESS PERIOD      2
 UBDSV06 SAVING              CHD IN MODEL GWF_PUMPTREAT    PACKAGE GWF_PUMPTREAT   CONNECTED TO MODEL GWF_PUMPTREAT    PACKAGE CHD-1            ON UNIT   1027 AT TIME STEP    242, STRESS PERIOD      2

 HEAD WILL BE SAVED ON UNIT 1028 AT END OF TIME STEP  242, STRESS PERIOD    2


  VOLUME BUDGET FOR ENTIRE MODEL AT END OF TIME STEP  242, STRESS PERIOD   2
  ---------------------------------------------------------------------------------------------------

     CUMULATIVE VOLUME      L**3       RATES FOR THIS TIME STEP      L**3/T          PACKAGE NAME    
     ------------------                 ------------------------                     ----------------

           IN:                                      IN:
           ---                                      ---
              STO-SS =          56.6905                STO-SS =           0.1044     STORAGE                          
              STO-SY =           0.0000                STO-SY =           0.0000     STORAGE                          
                 WEL =           0.0000                   WEL =           0.0000     WEL-1                            
                 CHD =      308798.7844                   CHD =         135.6064     CHD-1                            

            TOTAL IN =      308855.4749              TOTAL IN =         135.7108

          OUT:                                     OUT:
          ----                                     ----
              STO-SS =          56.8198                STO-SS =           0.0000     STORAGE                          
              STO-SY =           0.0000                STO-SY =           0.0000     STORAGE                          
                 WEL =      299146.0908                   WEL =         143.4081     WEL-1                            
                 CHD =       12928.3352                   CHD =           0.0000     CHD-1                            

           TOTAL OUT =      312131.2458             TOTAL OUT =         143.4081

            IN - OUT =       -3275.7710              IN - OUT =          -7.6973

 PERCENT DISCREPANCY =          -1.06     PERCENT DISCREPANCY =          -5.52




         TIME SUMMARY AT END OF TIME STEP  242 IN STRESS PERIOD    2
                    SECONDS     MINUTES      HOURS       DAYS        YEARS
                    -----------------------------------------------------------
   TIME STEP LENGTH 1.03680E+06  17280.      288.00      12.000     3.28542E-02
 STRESS PERIOD TIME 2.50906E+08 4.18176E+06  69696.      2904.0      7.9507    
         TOTAL TIME 2.50992E+08 4.18320E+06  69720.      2905.0      7.9535    


         ****FAILED TO MEET SOLVER CONVERGENCE CRITERIA IN TIME STEP 242 OF STRESS PERIOD 2****

end timestep


start timestep kper="2" kstp="243" mode="normal"

 UBDSV1 SAVING           STO-SS ON UNIT   1027 AT TIME STEP    243, STRESS PERIOD      2
 UBDSV1 SAVING           STO-SY ON UNIT   1027 AT TIME STEP    243, STRESS PERIOD      2
 UBDSV1 SAVING     FLOW-JA-FACE ON UNIT   1027 AT TIME STEP    243, STRESS PERIOD      2
 UBDSV06 SAVING       DATA-SPDIS IN MODEL GWF_PUMPTREAT    PACKAGE NPF             CONNECTED TO MODEL GWF_PUMPTREAT    PACKAGE NPF              ON UNIT   1027 AT TIME STEP    243, STRESS PERIOD      2
 UBDSV06 SAVING              WEL IN MODEL GWF_PUMPTREAT    PACKAGE GWF_PUMPTREAT   CONNECTED TO MODEL GWF_PUMPTREAT    PACKAGE WEL-1            ON UNIT   1027 AT TIME STEP    243, STRESS PERIOD      2
 UBDSV06 SAVING              CHD IN MODEL GWF_PUMPTREAT    PACKAGE GWF_PUMPTREAT   CONNECTED TO MODEL GWF_PUMPTREAT    PACKAGE CHD-1            ON UNIT   1027 AT TIME STEP    243, STRESS PERIOD      2

 HEAD WILL BE SAVED ON UNIT 1028 AT END OF TIME STEP  243, STRESS PERIOD    2

end timestep


start timestep kper="2" kstp="244" mode="normal"

 UBDSV1 SAVING           STO-SS ON UNIT   1027 AT TIME STEP    244, STRESS PERIOD      2
 UBDSV1 SAVING           STO-SY ON UNIT   1027 AT TIME STEP    244, STRESS PERIOD      2
 UBDSV1 SAVING     FLOW-JA-FACE ON UNIT   1027 AT TIME STEP    244, STRESS PERIOD      2
 UBDSV06 SAVING       DATA-SPDIS IN MODEL GWF_PUMPTREAT    PACKAGE NPF             CONNECTED TO MODEL GWF_PUMPTREAT    PACKAGE NPF              ON UNIT   1027 AT TIME STEP    244, STRESS PERIOD      2
 UBDSV06 SAVING              WEL IN MODEL GWF_PUMPTREAT    PACKAGE GWF_PUMPTREAT   CONNECTED TO MODEL GWF_PUMPTREAT    PACKAGE WEL-1            ON UNIT   1027 AT TIME STEP    244, STRESS PERIOD      2
 UBDSV06 SAVING              CHD IN MODEL GWF_PUMPTREAT    PACKAGE GWF_PUMPTREAT   CONNECTED TO MODEL GWF_PUMPTREAT    PACKAGE CHD-1            ON UNIT   1027 AT TIME STEP    244, STRESS PERIOD      2

 HEAD WILL BE SAVED ON UNIT 1028 AT END OF TIME STEP  244, STRESS PERIOD    2

end timestep


start timestep kper="2" kstp="245" mode="normal"

 UBDSV1 SAVING           STO-SS ON UNIT   1027 AT TIME STEP    245, STRESS PERIOD      2
 UBDSV1 SAVING           STO-SY ON UNIT   1027 AT TIME STEP    245, STRESS PERIOD      2
 UBDSV1 SAVING     FLOW-JA-FACE ON UNIT   1027 AT TIME STEP    245, STRESS PERIOD      2
 UBDSV06 SAVING       DATA-SPDIS IN MODEL GWF_PUMPTREAT    PACKAGE NPF             CONNECTED TO MODEL GWF_PUMPTREAT    PACKAGE NPF              ON UNIT   1027 AT TIME STEP    245, STRESS PERIOD      2
 UBDSV06 SAVING              WEL IN MODEL GWF_PUMPTREAT    PACKAGE GWF_PUMPTREAT   CONNECTED TO MODEL GWF_PUMPTREAT    PACKAGE WEL-1            ON UNIT   1027 AT TIME STEP    245, STRESS PERIOD      2
 UBDSV06 SAVING              CHD IN MODEL GWF_PUMPTREAT    PACKAGE GWF_PUMPTREAT   CONNECTED TO MODEL GWF_PUMPTREAT    PACKAGE CHD-1            ON UNIT   1027 AT TIME STEP    245, STRESS PERIOD      2

 HEAD WILL BE SAVED ON UNIT 1028 AT END OF TIME STEP  245, STRESS PERIOD    2

end timestep


start timestep kper="2" kstp="246" mode="normal"

 UBDSV1 SAVING           STO-SS ON UNIT   1027 AT TIME STEP    246, STRESS PERIOD      2
 UBDSV1 SAVING           STO-SY ON UNIT   1027 AT TIME STEP    246, STRESS PERIOD      2
 UBDSV1 SAVING     FLOW-JA-FACE ON UNIT   1027 AT TIME STEP    246, STRESS PERIOD      2
 UBDSV06 SAVING       DATA-SPDIS IN MODEL GWF_PUMPTREAT    PACKAGE NPF             CONNECTED TO MODEL GWF_PUMPTREAT    PACKAGE NPF              ON UNIT   1027 AT TIME STEP    246, STRESS PERIOD      2
 UBDSV06 SAVING              WEL IN MODEL GWF_PUMPTREAT    PACKAGE GWF_PUMPTREAT   CONNECTED TO MODEL GWF_PUMPTREAT    PACKAGE WEL-1            ON UNIT   1027 AT TIME STEP    246, STRESS PERIOD      2
 UBDSV06 SAVING              CHD IN MODEL GWF_PUMPTREAT    PACKAGE GWF_PUMPTREAT   CONNECTED TO MODEL GWF_PUMPTREAT    PACKAGE CHD-1            ON UNIT   1027 AT TIME STEP    246, STRESS PERIOD      2

 HEAD WILL BE SAVED ON UNIT 1028 AT END OF TIME STEP  246, STRESS PERIOD    2

end timestep


start timestep kper="2" kstp="247" mode="normal"

 UBDSV1 SAVING           STO-SS ON UNIT   1027 AT TIME STEP    247, STRESS PERIOD      2
 UBDSV1 SAVING           STO-SY ON UNIT   1027 AT TIME STEP    247, STRESS PERIOD      2
 UBDSV1 SAVING     FLOW-JA-FACE ON UNIT   1027 AT TIME STEP    247, STRESS PERIOD      2
 UBDSV06 SAVING       DATA-SPDIS IN MODEL GWF_PUMPTREAT    PACKAGE NPF             CONNECTED TO MODEL GWF_PUMPTREAT    PACKAGE NPF              ON UNIT   1027 AT TIME STEP    247, STRESS PERIOD      2
 UBDSV06 SAVING              WEL IN MODEL GWF_PUMPTREAT    PACKAGE GWF_PUMPTREAT   CONNECTED TO MODEL GWF_PUMPTREAT    PACKAGE WEL-1            ON UNIT   1027 AT TIME STEP    247, STRESS PERIOD      2
 UBDSV06 SAVING              CHD IN MODEL GWF_PUMPTREAT    PACKAGE GWF_PUMPTREAT   CONNECTED TO MODEL GWF_PUMPTREAT    PACKAGE CHD-1            ON UNIT   1027 AT TIME STEP    247, STRESS PERIOD      2

 HEAD WILL BE SAVED ON UNIT 1028 AT END OF TIME STEP  247, STRESS PERIOD    2


  VOLUME BUDGET FOR ENTIRE MODEL AT END OF TIME STEP  247, STRESS PERIOD   2
  ---------------------------------------------------------------------------------------------------

     CUMULATIVE VOLUME      L**3       RATES FOR THIS TIME STEP      L**3/T          PACKAGE NAME    
     ------------------                 ------------------------                     ----------------

           IN:                                      IN:
           ---                                      ---
              STO-SS =          58.0766                STO-SS =           0.1044     STORAGE                          
              STO-SY =           0.0000                STO-SY =           0.0000     STORAGE                          
                 WEL =           0.0000                   WEL =           0.0000     WEL-1                            
                 CHD =      316013.3759                   CHD =         135.6064     CHD-1                            

            TOTAL IN =      316071.4524              TOTAL IN =         135.7108

          OUT:                                     OUT:
          ----                                     ----
              STO-SS =          58.2059                STO-SS =           0.0000     STORAGE                          
              STO-SY =           0.0000                STO-SY =           0.0000     STORAGE                          
                 WEL =      306271.2803                   WEL =         143.4081     WEL-1                            
                 CHD =       13101.6070                   CHD =           0.0000     CHD-1                            

           TOTAL OUT =      319431.0932             TOTAL OUT =         143.4081

            IN - OUT =       -3359.6408              IN - OUT =          -7.6973

 PERCENT DISCREPANCY =          -1.06     PERCENT DISCREPANCY =          -5.52




         TIME SUMMARY AT END OF TIME STEP  247 IN STRESS PERIOD    2
                    SECONDS     MINUTES      HOURS       DAYS        YEARS
                    -----------------------------------------------------------
   TIME STEP LENGTH 1.03680E+06  17280.      288.00      12.000     3.28542E-02
 STRESS PERIOD TIME 2.56090E+08 4.26816E+06  71136.      2964.0      8.1150    
         TOTAL TIME 2.56176E+08 4.26960E+06  71160.      2965.0      8.1177    


         ****FAILED TO MEET SOLVER CONVERGENCE CRITERIA IN TIME STEP 247 OF STRESS PERIOD 2****

end timestep


start timestep kper="2" kstp="248" mode="normal"

 UBDSV1 SAVING           STO-SS ON UNIT   1027 AT TIME STEP    248, STRESS PERIOD      2
 UBDSV1 SAVING           STO-SY ON UNIT   1027 AT TIME STEP    248, STRESS PERIOD      2
 UBDSV1 SAVING     FLOW-JA-FACE ON UNIT   1027 AT TIME STEP    248, STRESS PERIOD      2
 UBDSV06 SAVING       DATA-SPDIS IN MODEL GWF_PUMPTREAT    PACKAGE NPF             CONNECTED TO MODEL GWF_PUMPTREAT    PACKAGE NPF              ON UNIT   1027 AT TIME STEP    248, STRESS PERIOD      2
 UBDSV06 SAVING              WEL IN MODEL GWF_PUMPTREAT    PACKAGE GWF_PUMPTREAT   CONNECTED TO MODEL GWF_PUMPTREAT    PACKAGE WEL-1            ON UNIT   1027 AT TIME STEP    248, STRESS PERIOD      2
 UBDSV06 SAVING              CHD IN MODEL GWF_PUMPTREAT    PACKAGE GWF_PUMPTREAT   CONNECTED TO MODEL GWF_PUMPTREAT    PACKAGE CHD-1            ON UNIT   1027 AT TIME STEP    248, STRESS PERIOD      2

 HEAD WILL BE SAVED ON UNIT 1028 AT END OF TIME STEP  248, STRESS PERIOD    2

end timestep


start timestep kper="2" kstp="249" mode="normal"

 UBDSV1 SAVING           STO-SS ON UNIT   1027 AT TIME STEP    249, STRESS PERIOD      2
 UBDSV1 SAVING           STO-SY ON UNIT   1027 AT TIME STEP    249, STRESS PERIOD      2
 UBDSV1 SAVING     FLOW-JA-FACE ON UNIT   1027 AT TIME STEP    249, STRESS PERIOD      2
 UBDSV06 SAVING       DATA-SPDIS IN MODEL GWF_PUMPTREAT    PACKAGE NPF             CONNECTED TO MODEL GWF_PUMPTREAT    PACKAGE NPF              ON UNIT   1027 AT TIME STEP    249, STRESS PERIOD      2
 UBDSV06 SAVING              WEL IN MODEL GWF_PUMPTREAT    PACKAGE GWF_PUMPTREAT   CONNECTED TO MODEL GWF_PUMPTREAT    PACKAGE WEL-1            ON UNIT   1027 AT TIME STEP    249, STRESS PERIOD      2
 UBDSV06 SAVING              CHD IN MODEL GWF_PUMPTREAT    PACKAGE GWF_PUMPTREAT   CONNECTED TO MODEL GWF_PUMPTREAT    PACKAGE CHD-1            ON UNIT   1027 AT TIME STEP    249, STRESS PERIOD      2

 HEAD WILL BE SAVED ON UNIT 1028 AT END OF TIME STEP  249, STRESS PERIOD    2

end timestep


start timestep kper="2" kstp="250" mode="normal"

 UBDSV1 SAVING           STO-SS ON UNIT   1027 AT TIME STEP    250, STRESS PERIOD      2
 UBDSV1 SAVING           STO-SY ON UNIT   1027 AT TIME STEP    250, STRESS PERIOD      2
 UBDSV1 SAVING     FLOW-JA-FACE ON UNIT   1027 AT TIME STEP    250, STRESS PERIOD      2
 UBDSV06 SAVING       DATA-SPDIS IN MODEL GWF_PUMPTREAT    PACKAGE NPF             CONNECTED TO MODEL GWF_PUMPTREAT    PACKAGE NPF              ON UNIT   1027 AT TIME STEP    250, STRESS PERIOD      2
 UBDSV06 SAVING              WEL IN MODEL GWF_PUMPTREAT    PACKAGE GWF_PUMPTREAT   CONNECTED TO MODEL GWF_PUMPTREAT    PACKAGE WEL-1            ON UNIT   1027 AT TIME STEP    250, STRESS PERIOD      2
 UBDSV06 SAVING              CHD IN MODEL GWF_PUMPTREAT    PACKAGE GWF_PUMPTREAT   CONNECTED TO MODEL GWF_PUMPTREAT    PACKAGE CHD-1            ON UNIT   1027 AT TIME STEP    250, STRESS PERIOD      2

 HEAD WILL BE SAVED ON UNIT 1028 AT END OF TIME STEP  250, STRESS PERIOD    2


  VOLUME BUDGET FOR ENTIRE MODEL AT END OF TIME STEP  250, STRESS PERIOD   2
  ---------------------------------------------------------------------------------------------------

     CUMULATIVE VOLUME      L**3       RATES FOR THIS TIME STEP      L**3/T          PACKAGE NAME    
     ------------------                 ------------------------                     ----------------

           IN:                                      IN:
           ---                                      ---
              STO-SS =          58.2100                STO-SS =       3.0891E-06     STORAGE                          
              STO-SY =           0.0000                STO-SY =           0.0000     STORAGE                          
                 WEL =           0.0000                   WEL =           0.0000     WEL-1                            
                 CHD =      321405.5113                   CHD =         149.7719     CHD-1                            

            TOTAL IN =      321463.7213              TOTAL IN =         149.7719

          OUT:                                     OUT:
          ----                                     ----
              STO-SS =          58.2060                STO-SS =       2.5750E-06     STORAGE                          
              STO-SY =           0.0000                STO-SY =           0.0000     STORAGE                          
                 WEL =      311671.2803                   WEL =         150.0000     WEL-1                            
                 CHD =       13101.6070                   CHD =           0.0000     CHD-1                            

           TOTAL OUT =      324831.0933             TOTAL OUT =         150.0000

            IN - OUT =       -3367.3720              IN - OUT =          -0.2281

 PERCENT DISCREPANCY =          -1.04     PERCENT DISCREPANCY =          -0.15




         TIME SUMMARY AT END OF TIME STEP  250 IN STRESS PERIOD    2
                    SECONDS     MINUTES      HOURS       DAYS        YEARS
                    -----------------------------------------------------------
   TIME STEP LENGTH 1.03680E+06  17280.      288.00      12.000     3.28542E-02
 STRESS PERIOD TIME 2.59200E+08 4.32000E+06  72000.      3000.0      8.2136    
         TOTAL TIME 2.59286E+08 4.32144E+06  72024.      3001.0      8.2163    


end timestep

