                                   MODFLOW 6
                U.S. GEOLOGICAL SURVEY MODULAR HYDROLOGIC MODEL
                             TRANSPORT MODEL (GWT)
                            VERSION 6.6.2 05/12/2025

   MODFLOW 6 compiled May 12 2025 12:42:18 with Intel(R) Fortran Intel(R) 64
   Compiler Classic for applications running on Intel(R) 64, Version 2021.7.0
                             Build 20220726_000000

This software has been approved for release by the U.S. Geological 
Survey (USGS). Although the software has been subjected to rigorous 
review, the USGS reserves the right to update the software as needed 
pursuant to further analysis and review. No warranty, expressed or 
implied, is made by the USGS or the U.S. Government as to the 
functionality of the software and related material nor shall the 
fact of release constitute any such warranty. Furthermore, the 
software is released on condition that neither the USGS nor the U.S. 
Government shall be held liable for any damages resulting from its 
authorized or unauthorized use. Also refer to the USGS Water 
Resources Software User Rights Notice for complete use, copyright, 
and distribution information.


As a work of the United States Government, this USGS product is 
in the public domain within the United States. You can copy, 
modify, distribute, and perform the work, even for commercial 
purposes, all without asking permission. Additionally, USGS 
waives copyright and related rights in the work worldwide 
through CC0 1.0 Universal Public Domain Dedication 
(https://creativecommons.org/publicdomain/zero/1.0/).

The following GNU Lesser General Public License (LGPL) libraries
are used in this USGS product:

    SPARSKIT version 2.0
      ilut, luson, and qsplit 
      (https://www-users.cse.umn.edu/~saad/software/SPARSKIT/)

    RCM - Reverse Cuthill McKee Ordering
      (https://people.math.sc.edu/Burkardt/f_src/rcm/rcm.html)

    BLAS - Basic Linear Algebra Subprograms Level 1
      (https://people.math.sc.edu/Burkardt/f_src/blas1_d/blas1_d.html)

    SPARSEKIT - Sparse Matrix Utility Package
      amux, dperm, dvperm, rperm, and cperm
      (https://people.sc.fsu.edu/~jburkardt/f77_src/sparsekit/sparsekit.html)

The following BSD-3 License libraries are used in this USGS product:

    Modern Fortran DAG Library
      Copyright (c) 2018, Jacob Williams
      All rights reserved.
      (https://github.com/jacobwilliams/daglib)

MODFLOW 6 compiler options: /Isrc\libmf6core.a.p /Isrc /I..\src
/Isrc\libmf6_external.a.p /MT /nologo /warn:general /warn:truncated_source
/stand:f18 /O2 /fpe:0 /heap-arrays:0 /traceback /fpp /Qdiag-disable:7416
/Qdiag-disable:7025 /Qdiag-disable:5268 /Qdiag-disable:10448
/Fdsrc\libmf6core.a.p\Utilities_compilerversion.F90.pdb
/module:src\libmf6core.a.p
/Fosrc/libmf6core.a.p/Utilities_compilerversion.F90.obj /c

System command used to initiate simulation:
"C:/Users/lucialabarca/re-run noteboks/pymf6-validation/.pixi/envs/default\python.exe" -m ipykernel_launcher -f C:\Users\lucialabarca\AppData\Roaming\jupyter\runtime\kernel-4271cae1-925b-4e3d-81f2-e6a803381ae3.json

MODFLOW was compiled using uniform precision.

Real Variables
  KIND: 8
  TINY (smallest non-zero value):    2.225074-308
  HUGE (largest value):    1.797693+308
  PRECISION: 15
  SIZE IN BITS: 64

Integer Variables
  KIND: 4
  HUGE (largest value): 2147483647
  SIZE IN BITS: 32

Long Integer Variables
  KIND: 8
  HUGE (largest value): 9223372036854775807
  SIZE IN BITS: 64

Logical Variables
  KIND: 4
  SIZE IN BITS: 32
 
 NAMEFILE OPTIONS:
 END NAMEFILE OPTIONS:

 DIS -- STRUCTURED GRID DISCRETIZATION PACKAGE, VERSION 2 : 3/27/2014 - INPUT READ FROM MEMPATH: __INPUT__/GWT_PUMPTREAT/DIS                       


 DSP-- DISPERSION PACKAGE, VERSION 1, 1/24/2018 INPUT READ FROM MEMPATH: __INPUT__/GWT_PUMPTREAT/DSP                       


 Setting Discretization Options
 End Setting Discretization Options

 Setting Discretization Dimensions
    NLAY = 1
    NROW = 101
    NCOL = 101
 End Setting Discretization Dimensions

 Setting Discretization Griddata
    DELR set from input file
    DELC set from input file
    TOP set from input file
    BOTM set from input file
 End Setting Discretization Griddata


 FMI -- FLOW MODEL INTERFACE,' VERSION 2, 8/17/2023
  FLOWS PROVIDED BY A GWF MODEL IN THIS SIMULATION

 ADV-- ADVECTION PACKAGE, VERSION 1, 8/25/2017 INPUT READ FROM UNIT 1016


 # File generated by Flopy version 3.9.3 on 07/21/2025 at 11:08:37.
 PROCESSING ADVECTION OPTIONS
    ADVECTION WEIGHTING SCHEME HAS BEEN SET TO: UPSTREAM
 END OF ADVECTION OPTIONS
 Setting DSP Options
    XT3D formulation [0=INACTIVE, 1=ACTIVE, 3=ACTIVE RHS] set to: 1
 End Setting DSP Options

 Setting DSP Griddata
    ALH set from input file
    ATH1 set from input file
 End Setting DSP Griddata


 CNC   -- CNC PACKAGE, VERSION 8, 2/22/2014 INPUT READ FROM MEMPATH: __INPUT__/GWT_PUMPTREAT/CNC                       

 PROCESSING CNC BASE OPTIONS
 END OF CNC BASE OPTIONS

 PROCESSING CNC BASE DIMENSIONS
    MAXBOUND =       6
 END OF CNC BASE DIMENSIONS
    STRT set from input file

 MST -- MOBILE STORAGE AND TRANSFER PACKAGE, VERSION 1, 7/29/2020 INPUT READ FROM UNIT 1015


 # File generated by Flopy version 3.9.3 on 07/21/2025 at 11:08:37.
 PROCESSING MOBILE STORAGE AND TRANSFER OPTIONS
 END OF MOBILE STORAGE AND TRANSFER OPTIONS
 PROCESSING GRIDDATA

   MOBILE DOMAIN POROSITY =  0.2000000    
 END PROCESSING GRIDDATA

 SSM -- SOURCE-SINK MIXING PACKAGE, VERSION 1, 8/25/2017 INPUT READ FROM UNIT 1018


 # File generated by Flopy version 3.9.3 on 07/21/2025 at 11:08:37.
 PROCESSING SSM OPTIONS
 END OF SSM OPTIONS
 PROCESSING SOURCES
 AUX SOURCE DETECTED.
    USING AUX COLUMN 1 IN PACKAGE CHD-1
 AUX SOURCE DETECTED.
    USING AUX COLUMN 1 IN PACKAGE WEL-1
 END PROCESSING SOURCES
 OPTIONAL FILEINPUT BLOCK NOT FOUND.  CONTINUING.
      THE LAST TIME STEP WILL BE PRINTED
      THE LAST TIME STEP WILL BE PRINTED
 # File generated by Flopy version 3.9.3 on 07/21/2025 at 11:08:37.

 PROCESSING OC OPTIONS

    BUDGET INFORMATION WILL BE WRITTEN TO:
      UNIT NUMBER: 1029
      FILE NAME: gwt_pumptreat.cbc

 OPENED gwt_pumptreat.cbc
 FILE TYPE:DATA(BINARY)   UNIT 1029   STATUS:REPLACE             
 FORMAT:UNFORMATTED            ACCESS:STREAM              
 ACTION:READWRITE           

    CONCENTRATION INFORMATION WILL BE WRITTEN TO:
      UNIT NUMBER: 1030
      FILE NAME: gwt_pumptreat.ucn

 OPENED gwt_pumptreat.ucn
 FILE TYPE:DATA(BINARY)   UNIT 1030   STATUS:REPLACE             
 FORMAT:UNFORMATTED            ACCESS:STREAM              
 ACTION:READWRITE           

 END OF OC OPTIONS

start timestep kper="1" kstp="1" mode="normal"


 BEGIN READING OUTPUT CONTROL FOR STRESS PERIOD 1
      THE LAST TIME STEP WILL BE SAVED
      THE LAST TIME STEP WILL BE PRINTED

 END READING OUTPUT CONTROL FOR STRESS PERIOD 1

 XT3D is active.


1
  CONCENTRATION IN LAYER   1 AT END OF TIME STEP   1 IN STRESS PERIOD    1
  ---------------------------------------------------------------------------

 ........................................................................................................................................................................................................................................................................................................................................................................................................................................................................................................................................................................................................................................................................................................................................................................................................................................................................................................................................................................................................................................
   1   2.1297E-39  4.3597E-39  8.9928E-39  1.8440E-38  3.7278E-38  7.3981E-38  1.4382E-37  2.7364E-37  5.0939E-37  9.2795E-37
       1.6558E-36  2.9013E-36  5.0238E-36  8.7317E-36  1.5796E-35  3.1780E-35  7.5674E-35  2.0279E-34  4.4270E-34 -7.8120E-34
      -2.2390E-32 -1.7093E-31 -1.0409E-31  2.0073E-30  2.4998E-30 -4.9943E-30 -1.1856E-29 -4.5956E-30  1.1118E-29  1.9498E-29
       1.6449E-29  9.0758E-30  3.5657E-30  1.0317E-30  2.2214E-31  3.5135E-32  3.8998E-33  2.6956E-34  8.0619E-36  5.5733E-38
      -3.4278E-40  1.2237E-41  4.2065E-44 -1.2683E-45 -1.9203E-47 -4.7075E-49 -1.8598E-50 -5.9252E-52 -1.9153E-53 -6.5341E-55
      -2.4033E-56 -9.1368E-58 -3.4395E-59 -1.2744E-60 -4.6122E-62 -1.6093E-63 -5.4242E-65 -1.7690E-66 -5.8192E-68 -2.1681E-69
      -9.8005E-71 -5.1521E-72 -2.8424E-73 -1.4991E-74 -6.9380E-76 -2.4150E-77 -9.5646E-80  1.0308E-79  1.5389E-80  1.7343E-81
       1.7960E-82  1.8028E-83  1.7692E-84  1.6831E-85  1.5259E-86  1.3127E-87  1.0485E-88  7.9692E-90  5.8241E-91  3.8785E-92
       2.5137E-93  1.6247E-94  9.7986E-96  5.7897E-97  3.3767E-98  1.9296E-99  1.0789-100  5.8792-102  3.1507-103  1.6771-104
       8.8958-106  4.6541-107  2.3970-108  1.2450-109  6.2916-111  3.1128-112  1.6078-113  8.2900-115  4.0957-116  2.0775-117
       1.1471-118
   2   2.0088E-38  4.1348E-38  8.6083E-38  1.7855E-37  3.6566E-37  7.3601E-37  1.4530E-36  2.8110E-36  5.3277E-36  9.8944E-36
       1.8021E-35  3.2253E-35  5.7009E-35  1.0080E-34  1.8417E-34  3.7356E-34  9.3111E-34  2.9156E-33  9.5466E-33  1.2707E-32
      -2.9136E-31 -3.4363E-30 -2.5992E-30  4.5164E-29  4.9204E-29 -1.4120E-28 -2.8849E-28 -4.7540E-29  4.0037E-28  6.1541E-28
       4.9992E-28  2.6969E-28  1.0372E-28  2.9161E-29  6.0015E-30  8.8346E-31  8.7712E-32  5.1365E-33  1.2910E-34  3.9955E-37
      -8.0182E-39  8.0492E-41  1.1761E-42  1.4694E-45  4.4872E-47 -5.5259E-49 -1.9149E-49 -1.1685E-50 -5.4136E-52 -2.1739E-53
      -8.3036E-55 -2.9693E-56 -9.4789E-58 -2.6911E-59 -6.0599E-61 -5.5831E-63  4.1801E-64  3.7770E-65  2.0396E-66  8.2123E-68
       2.2714E-69 -3.3173E-73 -6.2056E-72 -6.2387E-73 -4.5943E-74 -2.9165E-75 -1.6643E-76 -8.3675E-78 -3.1551E-79  7.2485E-82
       2.0501E-81  3.2090E-82  3.7779E-83  3.8951E-84  3.6676E-85  3.1703E-86  2.5457E-87  1.8947E-88  1.3313E-89  8.9405E-91
       5.6687E-92  3.4947E-93  2.0988E-94  1.2200E-95  6.9500E-97  3.8834E-98  2.1356E-99  1.1581-100  6.1806-102  3.2635-103
       1.7130-104  8.9253-106  4.5986-107  2.3356-108  1.1889-109  6.0374-111  3.0267-112  1.5352-113  7.7088-115  3.8590-116
       2.0850-117
   3   2.0647E-37  4.2728E-37  8.9788E-37  1.8837E-36  3.9070E-36  7.9736E-36  1.5978E-35  3.1413E-35  6.0579E-35  1.1462E-34
       2.1294E-34  3.8909E-34  7.0203E-34  1.2634E-33  2.3295E-33  4.7109E-33  1.1881E-32  4.1361E-32  1.7897E-31  5.8770E-31
      -3.6385E-30 -7.2069E-29 -5.7126E-29  1.0551E-27  9.2029E-28 -3.9929E-27 -6.9102E-27  9.5063E-28  1.3619E-26  1.8837E-26
       1.4641E-26  7.6303E-27  2.8277E-27  7.5900E-28  1.4682E-28  1.9858E-29  1.7591E-30  8.9852E-32  2.0200E-33  8.0522E-36
      -9.6397E-38  2.7413E-41  1.1434E-41  1.0497E-43  4.9151E-45  2.6557E-46  1.2327E-47  5.4333E-49  2.3792E-50  1.0468E-51
       4.3615E-53  1.7449E-54  6.9422E-56  2.7372E-57  1.0654E-58  4.0527E-60  1.5078E-61  5.4676E-63  1.8807E-64  5.8668E-66
       1.4816E-67  1.4689E-69 -1.7123E-70 -1.8747E-71 -1.3553E-72 -8.3795E-74 -4.6814E-75 -2.3206E-76 -8.6578E-78  2.9791E-80
       5.7942E-80  8.9859E-81  1.0460E-81  1.0576E-82  9.6978E-84  8.2224E-85  6.3800E-86  4.6275E-87  3.1612E-88  2.0512E-89
       1.2866E-90  7.6806E-92  4.4920E-93  2.5780E-94  1.4482E-95  7.9755E-97  4.3330E-98  2.3300E-99  1.2369-100  6.4767-102
       3.3635-103  1.7448-104  8.9184-106  4.5614-107  2.2837-108  1.1538-109  5.8597-111  2.9248-112  1.4671-113  7.3622-115
       3.9223-116
   4   2.1134E-36  4.4030E-36  9.3543E-36  1.9881E-35  4.1825E-35  8.6666E-35  1.7652E-34  3.5312E-34  6.9374E-34  1.3389E-33
       2.5405E-33  4.7463E-33  8.7598E-33  1.6099E-32  3.0113E-32  6.0977E-32  1.5463E-31  5.8648E-31  3.0919E-30  1.3234E-29
      -6.1095E-29 -1.4596E-27 -5.4681E-28  2.3882E-26  1.0872E-26 -1.0889E-25 -1.4308E-25  1.0215E-25  4.2519E-25  5.1682E-25
       3.7122E-25  1.7991E-25  6.1632E-26  1.5102E-26  2.6204E-27  3.1114E-28  2.3648E-29  1.0239E-30  1.9663E-32  1.0641E-34
      -5.5200E-37 -4.9126E-39  2.7118E-41 -1.1820E-42 -9.4387E-44 -5.0247E-45 -2.4519E-46 -1.1721E-47 -5.4121E-49 -2.2829E-50
      -9.3537E-52 -3.9133E-53 -1.6179E-54 -6.5412E-56 -2.6382E-57 -1.0618E-58 -4.2536E-60 -1.7042E-61 -6.8604E-63 -2.7797E-64
      -1.1356E-65 -4.6920E-67 -1.9718E-68 -8.4574E-70 -3.6944E-71 -1.6267E-72 -6.9178E-74 -2.3726E-75  8.0645E-78  1.5477E-77
       2.4585E-78  2.9681E-79  3.1351E-80  2.9997E-81  2.6251E-82  2.1206E-83  1.5992E-84  1.1099E-85  7.3183E-87  4.6395E-88
       2.8238E-89  1.6650E-90  9.5392E-92  5.3687E-93  2.9700E-94  1.6153E-95  8.6634E-97  4.6022E-98  2.4259E-99  1.2646-100
       6.5038-102  3.3267-103  1.7100-104  8.6280-106  4.3977-107  2.1864-108  1.0934-109  5.4930-111  2.7432-112  1.3666-113
       7.2550-115
   5   2.1483E-35  4.5123E-35  9.7087E-35  2.0938E-34  4.4746E-34  9.4275E-34  1.9543E-33  3.9832E-33  7.9821E-33  1.5733E-32
       3.0525E-32  5.8384E-32  1.1040E-31  2.0777E-31  3.9628E-31  8.1063E-31  2.0878E-30  8.5920E-30  5.0915E-29  2.1702E-28
      -1.4591E-27 -2.7316E-26  1.3484E-26  4.9659E-25 -7.5749E-26 -2.6811E-24 -2.2526E-24  4.5806E-24  1.1646E-23  1.2312E-23
       7.9737E-24  3.4955E-24  1.0753E-24  2.3371E-25  3.5407E-26  3.6143E-27  2.3313E-28  8.5150E-30  1.4003E-31  9.4607E-34
      -1.1368E-36 -3.6918E-38  7.5963E-40  4.0206E-41  1.6522E-42  6.8213E-44  2.9954E-45  1.2734E-46  4.7878E-48  1.9104E-49
       8.4828E-51  3.5867E-52  1.4607E-53  6.1023E-55  2.6067E-56  1.1280E-57  4.8938E-59  2.1189E-60  9.1236E-62  3.8963E-63
       1.6462E-64  6.8628E-66  2.8140E-67  1.1320E-68  4.4857E-70  1.8140E-71  8.6381E-73  6.1858E-74  6.4878E-75  7.6387E-76
       8.7150E-77  9.2570E-78  9.1122E-79  8.3192E-80  7.0032E-81  5.4175E-82  3.8938E-83  2.6299E-84  1.6664E-85  1.0191E-86
       6.0663E-88  3.5105E-89  1.9796E-90  1.0954E-91  5.9773E-93  3.2193E-94  1.7093E-95  8.9686E-97  4.6786E-98  2.4271E-99
       1.2458-100  6.3112-102  3.1845-103  1.6179-104  8.1560-106  4.0979-107  2.0324-108  1.0088-109  5.0262-111  2.4953-112
       1.3198-113
   6   2.1644E-34  4.5902E-34  1.0020E-33  2.1964E-33  4.7756E-33  1.0245E-32  2.1645E-32  4.5006E-32  9.2105E-32  1.8561E-31
       3.6863E-31  7.2263E-31  1.4019E-30  2.7074E-30  5.2899E-30  1.1052E-29  2.9410E-29  1.2876E-28  7.6430E-28  2.3520E-27
      -3.6178E-26 -4.4690E-25  8.3997E-25  9.0064E-24 -9.0072E-24 -5.6742E-23 -1.6589E-23  1.4715E-22  2.7382E-22  2.5066E-22
       1.4399E-22  5.6013E-23  1.5180E-23  2.8753E-24  3.7492E-25  3.2577E-26  1.7769E-27  5.4751E-29  8.1953E-31  6.4758E-33
       3.0595E-36 -5.3681E-37 -9.4415E-39 -2.4513E-40 -1.0154E-41 -5.0673E-43 -2.1344E-44 -7.2600E-46 -3.1863E-47 -1.5502E-48
      -5.6546E-50 -1.7270E-51 -5.7463E-53 -2.0635E-54 -7.3216E-56 -2.4427E-57 -7.9077E-59 -2.5726E-60 -8.8824E-62 -3.4767E-63
      -1.5748E-64 -7.8041E-66 -3.8946E-67 -1.7879E-68 -5.7165E-70  2.2926E-71  8.6772E-72  1.4482E-72  1.9782E-73  2.4113E-74
       2.6809E-75  2.7346E-76  2.5717E-77  2.2429E-78  1.8124E-79  1.3424E-80  9.2449E-82  6.0089E-83  3.7099E-84  2.2030E-85
       1.2767E-86  7.2455E-88  4.0234E-89  2.1934E-90  1.1805E-91  6.2902E-93  3.3124E-94  1.7223E-95  8.8735E-97  4.5584E-98
       2.3374E-99  1.1846-100  5.9217-102  2.9609-103  1.4880-104  7.4573-106  3.7024-107  1.8290-108  9.0469-110  4.4785-111
       2.3598-112
   7   2.1569E-33  4.6260E-33  1.0264E-32  2.2908E-32  5.0755E-32  1.1104E-31  2.3941E-31  5.0846E-31  1.0639E-30  2.1944E-30
       4.4658E-30  8.9808E-30  1.7894E-29  3.5519E-29  7.1359E-29  1.5357E-28  4.2330E-28  1.8515E-27  9.4420E-27  3.0273E-27
      -7.6040E-25 -5.9832E-24  2.4976E-23  1.3484E-22 -3.0990E-22 -9.8935E-22  4.2487E-22  3.7392E-21  5.4916E-21  4.3449E-21
       2.1894E-21  7.4604E-22  1.7585E-22  2.8711E-23  3.1960E-24  2.3505E-25  1.0816E-26  2.8188E-28  4.3220E-30  4.1367E-32
       1.8335E-34 -3.4823E-37  2.1714E-38  2.0029E-39  9.2593E-41  2.4775E-42  3.0031E-44  1.8463E-45  9.4669E-47 -2.1109E-48
      -3.2417E-49 -1.4226E-50 -4.7825E-52 -1.6809E-53 -6.6517E-55 -2.6018E-56 -9.7620E-58 -3.5984E-59 -1.3346E-60 -4.9317E-62
      -1.7324E-63 -4.9738E-65 -9.9565E-68  1.8585E-67  2.7945E-68  3.5860E-69  4.5635E-70  5.7180E-71  6.8604E-72  7.7438E-73
       8.1474E-74  7.9393E-75  7.1407E-76  5.9247E-77  4.5588E-78  3.2197E-79  2.1191E-80  1.3295E-81  8.0071E-83  4.6510E-84
       2.6339E-85  1.4654E-86  8.0151E-88  4.3134E-89  2.2908E-90  1.2050E-91  6.2909E-93  3.2521E-94  1.6610E-95  8.4237E-97
       4.2751E-98  2.1685E-99  1.0863-100  5.3877-102  2.6714-103  1.3307-104  6.6072-106  3.2595-107  1.6042-108  7.9051-110
       4.1502-111
   8   2.1216E-32  4.6097E-32  1.0415E-31  2.3710E-31  5.3616E-31  1.1979E-30  2.6394E-30  5.7333E-30  1.2280E-29  2.5950E-29
       5.4164E-29  1.1184E-28  2.2904E-28  4.6781E-28  9.6804E-28  2.1447E-27  5.9410E-27  2.3281E-26  7.7311E-26 -5.4864E-25
      -1.2716E-23 -5.8289E-23  5.3195E-22  1.5200E-21 -7.3792E-21 -1.3338E-20  2.2037E-20  7.8233E-20  9.4162E-20  6.4314E-20
       2.8208E-20  8.3409E-21  1.6941E-21  2.3646E-22  2.2337E-23  1.3848E-24  5.3725E-26  1.2115E-27  1.9246E-29  2.0308E-31
       9.8377E-34 -1.1837E-35 -4.1750E-37 -7.6380E-39  1.2018E-40  1.0941E-41 -2.1504E-43 -8.9960E-45  1.6705E-45  1.1506E-46
       3.3411E-48  7.4685E-50  3.3308E-51  2.2983E-52  1.3524E-53  7.0107E-55  3.4137E-56  1.5925E-57  7.1907E-59  3.1845E-60
       1.4122E-61  6.4822E-63  3.2458E-64  1.9110E-65  1.4414E-66  1.4111E-67  1.6143E-68  1.9142E-69  2.1983E-70  2.3753E-71
       2.3897E-72  2.2303E-73  1.9240E-74  1.5216E-75  1.1080E-76  7.4954E-78  4.7262E-79  2.8582E-80  1.6761E-81  9.5474E-83
       5.3086E-84  2.9011E-85  1.5633E-86  8.3159E-88  4.3666E-89  2.2683E-90  1.1710E-91  6.0122E-93  3.0619E-94  1.5418E-95
       7.7110E-97  3.8707E-98  1.9407E-99  9.6311-101  4.7447-102  2.3404-103  1.1562-104  5.6945-106  2.7961-107  1.3727-108
       7.1764-110
   9   2.0556E-31  4.5327E-31  1.0450E-30  2.4306E-30  5.6190E-30  1.2840E-29  2.8953E-29  6.4402E-29  1.4136E-28  3.0637E-28
       6.5642E-28  1.3926E-27  2.9334E-27  6.1667E-27  1.3125E-26  2.9558E-26  7.7583E-26  2.3044E-25 -6.7310E-28 -1.4407E-23
      -1.6305E-22 -2.4621E-22  8.7924E-21  9.1998E-21 -1.3678E-19 -1.1451E-19  5.8769E-19  1.3796E-18  1.3891E-18  8.1787E-19
       3.1024E-19  7.8990E-20  1.3720E-20  1.6255E-21  1.2961E-22  6.7505E-24  2.2171E-25  4.9666E-27  8.3585E-29  1.0362E-30
       8.5487E-33  2.1424E-35 -9.4297E-37 -6.4877E-38 -1.1806E-39  9.2875E-41 -2.1187E-42 -6.5078E-43 -2.5801E-44 -1.9193E-47
       3.0846E-47  1.2892E-48  3.1083E-50  8.2147E-52  3.5462E-53  1.6933E-54  7.1720E-56  2.3691E-57  4.5587E-59 -7.4332E-61
      -9.0787E-62  1.4206E-63  1.1691E-63  2.0219E-64  2.8755E-65  3.8662E-66  4.9661E-67  6.0130E-68  6.7884E-69  7.0936E-70
       6.8356E-71  6.0781E-72  4.9956E-73  3.7491E-74  2.5925E-75  1.6761E-76  1.0218E-77  5.9855E-79  3.4157E-80  1.9076E-81
       1.0436E-82  5.6120E-84  2.9797E-85  1.5662E-86  8.1483E-88  4.1941E-89  2.1394E-90  1.0857E-91  5.4990E-93  2.7660E-94
       1.3758E-95  6.8130E-97  3.3889E-98  1.6807E-99  8.2736-101  4.0553-102  1.9900-103  9.7620-105  4.7803-106  2.3398-107
       1.2186-108
  10   1.9576E-30  4.3891E-30  1.0346E-29  2.4632E-29  5.8309E-29  1.3648E-28  3.1539E-28  7.1932E-28  1.6198E-27  3.6041E-27
       7.9334E-27  1.7305E-26  3.7503E-26  8.1113E-26  1.7688E-25  3.9764E-25  9.2946E-25  1.5342E-24 -1.2449E-23 -2.2180E-22
      -1.4730E-21  4.3374E-21  1.1472E-19 -8.4725E-20 -2.0396E-18  1.8544E-19  1.1731E-17  2.0845E-17  1.7759E-17  8.9929E-18
       2.9323E-18  6.3808E-19  9.4085E-20  9.4044E-21  6.3041E-22  2.7576E-23  8.0194E-25  1.8175E-26  3.2191E-28  4.4124E-30
       4.4237E-32  3.3530E-34  7.1433E-36 -1.5926E-37 -2.0342E-38  1.2533E-39  1.3297E-40  1.0266E-42 -2.9341E-43 -1.6104E-44
      -3.3224E-46  4.8202E-48  6.4736E-49  3.3040E-50  1.3974E-51  5.2608E-53  1.7352E-54  4.2596E-56  1.8722E-58 -5.2653E-59
      -2.6367E-60  1.0885E-61  4.1092E-62  6.7782E-63  9.6682E-64  1.2941E-64  1.6269E-65  1.9051E-66  2.0675E-67  2.0704E-68
       1.9042E-69  1.6054E-70  1.2456E-71  8.8465E-73  5.8024E-74  3.5914E-75  2.1283E-76  1.2163E-77  6.7795E-79  3.7132E-80
       1.9999E-81  1.0603E-82  5.5516E-84  2.8798E-85  1.4839E-86  7.5885E-88  3.8414E-89  1.9290E-90  9.6567E-92  4.8350E-93
       2.4043E-94  1.1837E-95  5.8190E-97  2.8661E-98  1.4083E-99  6.8872-101  3.3640-102  1.6421-103  8.0106-105  3.9092-106
       2.0284-107
  11   1.8284E-29  4.1766E-29  1.0086E-28  2.4627E-28  5.9793E-28  1.4358E-27  3.4050E-27  7.9729E-27  1.8441E-26  4.2165E-26
       9.5430E-26  2.1415E-25  4.7761E-25  1.0621E-24  2.3653E-24  5.2612E-24  1.0752E-23  4.8002E-24 -2.2368E-22 -2.2471E-21
      -6.1955E-21  1.2393E-19  1.1551E-18 -3.6799E-18 -2.4426E-17  3.1007E-17  1.9173E-16  2.7332E-16  1.9811E-16  8.5973E-17
       2.3941E-17  4.4190E-18  5.4896E-19  4.6018E-20  2.5880E-21  9.6653E-23  2.7785E-24  6.4090E-26  1.1940E-27  1.7744E-29
       1.8517E-31  9.5168E-34  7.3950E-35  1.2519E-36 -4.2786E-37 -1.9209E-38  8.6700E-40  1.0133E-40  3.1873E-42 -3.0001E-44
      -7.2109E-45 -3.8552E-46 -1.5262E-47 -5.8351E-49 -2.4642E-50 -1.2038E-51 -6.3063E-53 -3.3065E-54 -1.6425E-55 -7.2331E-57
      -2.3765E-58  6.4601E-61  1.3831E-60  2.3562E-61  3.3349E-62  4.3617E-63  5.2967E-64  5.9432E-65  6.1457E-66  5.8497E-67
       5.1092E-68  4.0698E-69  2.9622E-70  1.9964E-71  1.2447E-72  7.4164E-74  4.2751E-75  2.3925E-76  1.3079E-77  7.0352E-79
       3.7325E-80  1.9548E-81  1.0115E-82  5.1818E-84  2.6394E-85  1.3375E-86  6.7327E-88  3.3610E-89  1.6658E-90  8.2469E-92
       4.0837E-93  2.0101E-94  9.8250E-96  4.7979E-97  2.3443E-98  1.1426E-99  5.5618-101  2.7046-102  1.3143-103  6.3915-105
       3.3039-106
  12   1.6712E-28  3.8973E-28  9.6627E-28  2.4239E-27  6.0463E-27  1.4918E-26  3.6359E-26  8.7519E-26  2.0815E-25  4.8959E-25
       1.1402E-24  2.6340E-24  6.0476E-24  1.3830E-23  3.1483E-23  7.0080E-23  1.3529E-22  4.1436E-23 -2.0147E-21 -1.1821E-20
       6.7351E-20  1.7794E-18  8.0586E-18 -6.7816E-17 -2.2424E-16  7.4987E-16  2.6672E-15  3.1409E-15  1.9397E-15  7.1768E-16
       1.6940E-16  2.6321E-17  2.7335E-18  1.9122E-19  9.0760E-21  3.2099E-22  9.2520E-24  2.2032E-25  4.3854E-27  7.3558E-29
       8.5455E-31 -3.2897E-33  5.6455E-34  8.1977E-35 -1.8338E-37 -3.8335E-37 -2.0021E-38  1.2284E-41  5.4030E-41  3.5934E-42
       1.4362E-43  4.2355E-45  9.3134E-47  7.9999E-49 -7.5359E-50 -7.6096E-51 -4.7563E-52 -2.1930E-53 -5.6792E-55  2.7282E-56
       6.2399E-57  7.4640E-58  8.3456E-59  9.8923E-60  1.2219E-60  1.4843E-61  1.7036E-62  1.8129E-63  1.7737E-64  1.5917E-65
       1.3082E-66  9.7619E-68  6.6998E-69  4.2714E-70  2.5647E-71  1.4792E-72  8.2995E-74  4.5518E-75  2.4462E-76  1.2943E-77
       6.7669E-79  3.5017E-80  1.7939E-81  9.1041E-83  4.5881E-84  2.2993E-85  1.1480E-86  5.7035E-88  2.8156E-89  1.3811E-90
       6.7721E-92  3.3196E-93  1.6188E-94  7.8654E-96  3.8192E-97  1.8520E-98  8.9795-100  4.3513-101  2.1068-102  1.0210-103
       5.2570-105
  13   1.4911E-27  3.5578E-27  9.0754E-27  2.3432E-26  6.0153E-26  1.5274E-25  3.8315E-25  9.4937E-25  2.3247E-24  5.6305E-24
       1.3506E-23  3.2138E-23  7.6010E-23  1.7897E-22  4.1875E-22  9.5759E-22  1.9851E-21  2.6574E-21 -1.6113E-21  6.2876E-20
       1.7848E-18  1.7357E-17  1.8311E-17 -8.9312E-16 -1.2811E-15  1.2575E-14  3.2266E-14  3.1872E-14  1.6741E-14  5.2445E-15
       1.0398E-15  1.3491E-16  1.1642E-17  6.8058E-19  2.9002E-20  1.0118E-21  2.9460E-23  7.2549E-25  1.5413E-26  3.0523E-28
       4.5396E-30 -1.3775E-31 -6.9372E-33  8.0958E-34  7.8902E-35  1.1607E-36 -2.2268E-37 -1.9824E-38 -8.6854E-40 -1.9867E-41
       1.6393E-43  4.3746E-44  2.8703E-45  1.4374E-46  6.7170E-48  3.2197E-49  1.7470E-50  1.1347E-51  8.2513E-53  6.1834E-54
       4.7010E-55  3.7848E-56  3.4729E-57  3.7017E-58  4.2650E-59  4.8810E-60  5.2882E-61  5.3146E-62  4.9009E-63  4.1247E-64
       3.1585E-65  2.2114E-66  1.4275E-67  8.6808E-69  5.0577E-70  2.8433E-71  1.5580E-72  8.3807E-74  4.4341E-75  2.3126E-76
       1.1926E-77  6.0920E-79  3.0877E-80  1.5545E-81  7.7721E-83  3.8609E-84  1.9074E-85  9.4030E-87  4.6231E-88  2.2582E-89
       1.0983E-90  5.3439E-92  2.5938E-93  1.2554E-94  6.0688E-96  2.9288E-97  1.4133E-98  6.8222-100  3.2918-101  1.5898-102
       8.1518-104
  14   1.2955E-26  3.1697E-26  8.3361E-26  2.2194E-25  5.8735E-25  1.5374E-24  3.9753E-24  1.0154E-23  2.5630E-23  6.3991E-23
       1.5823E-22  3.8816E-22  9.4652E-22  2.2988E-21  5.5621E-21  1.3343E-20  3.1357E-20  7.4805E-20  2.7159E-19  2.2905E-18
       2.1428E-17  1.1032E-16 -4.6898E-16 -9.1273E-15  2.8837E-15  1.7062E-13  3.4416E-13  2.8715E-13  1.2766E-13  3.3569E-14
       5.5323E-15  5.9426E-16  4.2609E-17  2.1678E-18  8.9916E-20  3.1158E-21  9.2146E-23  2.3279E-24  5.1082E-26  1.3143E-27
       4.2786E-29 -6.9785E-31 -2.0665E-31 -7.0156E-33  5.8892E-34  7.6148E-35  3.8508E-36  6.5233E-38 -5.6513E-39 -6.3962E-40
      -4.1576E-41 -2.2127E-42 -1.0745E-43 -4.9642E-45 -2.1113E-46 -7.5105E-48 -1.4067E-49  1.0739E-50  1.7824E-51  1.7060E-52
       1.4231E-53  1.2124E-54  1.1617E-55  1.2521E-56  1.4069E-57  1.5358E-58  1.5701E-59  1.4818E-60  1.2792E-61  1.0025E-62
       7.1458E-64  4.7017E-65  2.8743E-66  1.6827E-67  9.5350E-69  5.2467E-70  2.8189E-71  1.4898E-72  7.7687E-74  4.0025E-75
       2.0401E-76  1.0293E-77  5.1558E-79  2.5706E-80  1.2755E-81  6.2954E-83  3.0858E-84  1.5075E-85  7.3584E-87  3.5793E-88
       1.7330E-89  8.3777E-91  4.0413E-92  1.9466E-93  9.3718E-95  4.5036E-96  2.1632E-97  1.0399E-98  4.9994-100  2.4061-101
       1.2284-102
  15   1.0930E-25  2.7487E-25  7.4686E-25  2.0542E-24  5.6139E-24  1.5172E-23  4.0503E-23  1.0680E-22  2.7825E-22  7.1698E-22
       1.8294E-21  4.6300E-21  1.1650E-20  2.9220E-20  7.3300E-20  1.8496E-19  4.7889E-19  1.3797E-18  5.3848E-18  3.0179E-17
       1.6484E-16  2.1568E-16 -8.8131E-15 -7.1741E-14  2.0394E-13  1.9763E-12  3.2668E-12  2.3051E-12  8.6050E-13  1.8791E-13
       2.5483E-14  2.2541E-15  1.3707E-16  6.7197E-18  2.7315E-19  9.4955E-21  2.8913E-22  7.3611E-24  1.3599E-25  4.3619E-27
       4.7320E-28  2.2372E-29 -1.1040E-30 -2.1287E-31 -1.2424E-32 -1.4228E-34  3.7011E-35  4.0018E-36  2.6362E-37  1.3882E-38
       6.5023E-40  2.9789E-41  1.4640E-42  8.1423E-44  5.1965E-45  3.6381E-46  2.6074E-47  1.8528E-48  1.2872E-49  8.7265E-51
       6.0191E-52  4.6030E-53  4.1526E-54  4.2589E-55  4.5242E-56  4.6395E-57  4.4342E-58  3.8946E-59  3.1117E-60  2.2536E-61
       1.5066E-62  9.3361E-64  5.4987E-65  3.1183E-66  1.7214E-67  9.2864E-69  4.9055E-70  2.5511E-71  1.3117E-72  6.6809E-74
       3.3715E-75  1.6844E-76  8.3497E-78  4.1191E-79  2.0263E-80  9.9253E-82  4.8359E-83  2.3459E-84  1.1363E-85  5.4900E-87
       2.6453E-88  1.2730E-89  6.1078E-91  2.9253E-92  1.4017E-93  6.7083E-95  3.2085E-96  1.5358E-97  7.3554E-99  3.5271-100
       1.7925-101
  16   8.9308E-25  2.3135E-24  6.5078E-24  1.8525E-23  5.2370E-23  1.4638E-22  4.0407E-22  1.1015E-21  2.9664E-21  7.8979E-21
       2.0815E-20  5.4397E-20  1.4130E-19  3.6603E-19  9.5036E-19  2.4969E-18  6.7899E-18  2.0140E-17  7.0068E-17  2.7429E-16
       7.4118E-16 -4.7200E-15 -9.1336E-14 -3.7924E-13  3.4662E-12  2.0054E-11  2.7765E-11  1.6513E-11  5.1189E-12  9.1682E-13
       1.0168E-13  7.5092E-15  4.3353E-16  2.0564E-17  8.2262E-19  2.9025E-20  9.5168E-22  2.5131E-23  4.8732E-26 -2.4167E-26
       2.3210E-27  4.7141E-28  2.9532E-29  7.4189E-32 -1.5084E-31 -1.6042E-32 -1.0412E-33 -4.8474E-35 -1.5277E-36 -8.2608E-39
       3.4847E-39  3.8302E-40  3.1075E-41  2.2991E-42  1.6574E-43  1.1900E-44  8.3940E-46  5.7390E-47  3.8176E-48  2.5235E-49
       1.7569E-50  1.4006E-51  1.3081E-52  1.3322E-53  1.3555E-54  1.3071E-55  1.1636E-56  9.4446E-58  6.9413E-59  4.6944E-60
       2.9295E-61  1.7416E-62  9.9576E-64  5.5087E-65  2.9734E-66  1.5748E-67  8.1944E-69  4.2004E-70  2.1303E-71  1.0719E-72
       5.3532E-74  2.6512E-75  1.3030E-76  6.3710E-78  3.1061E-79  1.5085E-80  7.2989E-82  3.5209E-83  1.6947E-84  8.1300E-86
       3.8933E-87  1.8647E-88  8.9051E-90  4.2423E-91  2.0225E-92  9.6383E-94  4.5905E-95  2.1880E-96  1.0437E-97  4.9863E-99
       2.5222-100
  17   7.0442E-24  1.8840E-23  5.4976E-23  1.6224E-22  4.7527E-22  1.3762E-21  3.9344E-21  1.1105E-20  3.0954E-20  8.5267E-20
       2.3238E-19  6.2760E-19  1.6837E-18  4.5015E-18  1.2055E-17  3.2599E-17  9.0244E-17  2.6058E-16  7.8374E-16  2.1362E-15
       6.7335E-16 -6.6648E-14 -6.1532E-13 -1.9933E-13  4.2114E-11  1.8095E-10  2.1209E-10  1.0551E-10  2.6794E-11  3.8893E-12
       3.5512E-13  2.4163E-14  1.3405E-15  6.2156E-17  2.4396E-18  8.7922E-20  3.5121E-21  1.3138E-22 -1.0818E-24 -6.8335E-25
      -4.0753E-26  1.5545E-27  4.8346E-28  4.6956E-29  2.8118E-30  9.5599E-32 -1.2751E-33 -5.0188E-34 -4.8924E-35 -3.4445E-36
      -1.9947E-37 -9.4468E-39 -2.9994E-40  3.4814E-42  1.6918E-42  1.9474E-43  1.6879E-44  1.2623E-45  8.7517E-47  6.0597E-48
       4.5779E-49  4.0021E-50  3.9137E-51  3.9293E-52  3.7930E-53  3.4052E-54  2.7919E-55  2.0748E-56  1.4222E-57  8.9552E-59
       5.3406E-60  3.0628E-61  1.7050E-62  9.2407E-64  4.8955E-65  2.5501E-66  1.3089E-67  6.6271E-69  3.3212E-70  1.6513E-71
       8.1541E-73  4.0006E-74  1.9491E-75  9.4580E-77  4.5743E-78  2.2035E-79  1.0573E-80  5.0672E-82  2.4261E-83  1.1568E-84
       5.5026E-86  2.6205E-87  1.2457E-88  5.9060E-90  2.8014E-91  1.3289E-92  6.3027E-94  2.9914E-95  1.4211E-96  6.7628E-98
       3.4041E-99
  18   5.3453E-23  1.4794E-22  4.4865E-22  1.3750E-21  4.1807E-21  1.2560E-20  3.7251E-20  1.0903E-19  3.1502E-19  8.9898E-19
       2.5365E-18  7.0862E-18  1.9644E-17  5.4190E-17  1.4937E-16  4.1349E-16  1.1557E-15  3.2597E-15  8.9911E-15  2.0671E-14
       4.5749E-15 -3.7280E-13 -1.6877E-12  2.5260E-11  4.1947E-10  1.4648E-09  1.4586E-09  6.0001E-10  1.2295E-10  1.4415E-11
       1.1633E-12  7.5008E-14  4.0855E-15  1.8747E-16  6.9145E-18  2.3057E-19  1.3749E-20  1.1553E-21  4.4095E-23 -4.4853E-24
      -8.7601E-25 -6.9494E-26 -2.0825E-27  2.2886E-28  4.5181E-29  4.7887E-30  4.0087E-31  2.9624E-32  2.0536E-33  1.3933E-34
       9.4793E-36  6.5119E-37  4.4907E-38  3.0657E-39  2.0384E-40  1.3089E-41  8.1030E-43  4.8676E-44  2.9278E-45  1.8868E-46
       1.4073E-47  1.2289E-48  1.1660E-49  1.1024E-50  9.8441E-52  8.0787E-53  6.0389E-54  4.1574E-55  2.6372E-56  1.5867E-57
       9.1392E-59  5.0874E-60  2.7628E-61  1.4690E-62  7.6564E-64  3.9270E-65  1.9884E-66  9.9527E-68  4.9370E-69  2.4296E-70
       1.1869E-71  5.7626E-73  2.7819E-74  1.3391E-75  6.4303E-77  3.0745E-78  1.4633E-79  6.9601E-81  3.3127E-82  1.5709E-83
       7.4255E-85  3.5148E-86  1.6625E-87  7.8439E-89  3.7017E-90  1.7476E-91  8.2519E-93  3.8999E-94  1.8450E-95  8.7442E-97
       4.3788E-98
  19   3.8874E-22  1.1158E-21  3.5229E-21  1.1230E-20  3.5495E-20  1.1083E-19  3.4149E-19  1.0381E-18  3.1135E-18  9.2175E-18
       2.6958E-17  7.7990E-17  2.2360E-16  6.3685E-16  1.8074E-15  5.1281E-15  1.4578E-14  4.1412E-14  1.1544E-13  3.0007E-13
       6.6573E-13  1.7745E-12  2.3208E-11  3.8774E-10  3.5893E-09  1.0690E-08  9.0257E-09  3.0249E-09  4.9462E-10  4.8931E-11
       3.6285E-12  2.2621E-13  1.2633E-14  5.9336E-16  1.7877E-17  6.1853E-20  1.6486E-20  8.4965E-21  1.0571E-21  5.4856E-23
      -2.5994E-24 -8.5962E-25 -1.0258E-25 -8.3421E-27 -4.8777E-28 -1.6000E-29  6.6104E-31  1.8200E-31  2.1488E-32  1.9935E-33
       1.6235E-34  1.2110E-35  8.4381E-37  5.5424E-38  3.4543E-39  2.0626E-40  1.2013E-41  7.1172E-43  4.6361E-44  3.5751E-45
       3.2325E-46  3.1436E-47  3.0178E-48  2.7199E-49  2.2429E-50  1.6886E-51  1.1687E-52  7.4423E-54  4.4912E-55  2.6032E-56
       1.4586E-57  7.9330E-59  4.2172E-60  2.2029E-61  1.1315E-62  5.7232E-64  2.8591E-65  1.4142E-66  6.9429E-68  3.3861E-69
       1.6396E-70  7.8797E-72  3.7672E-73  1.7968E-74  8.5642E-76  4.0669E-77  1.9211E-78  9.0646E-80  4.2847E-81  2.0203E-82
       9.4936E-84  4.4658E-85  2.1005E-86  9.8621E-88  4.6310E-89  2.1754E-90  1.0223E-91  4.8098E-93  2.2656E-94  1.0693E-95
       5.3259E-97
  20   2.6979E-21  8.0471E-21  2.6495E-20  8.7978E-20  2.8950E-19  9.4077E-19  3.0160E-18  9.5359E-18  2.9733E-17  9.1447E-17
       2.7760E-16  8.3271E-16  2.4722E-15  7.2792E-15  2.1312E-14  6.2231E-14  1.8180E-13  5.3299E-13  1.5752E-12  4.7765E-12
       1.5981E-11  7.0743E-11  4.7272E-10  3.9672E-09  2.6941E-08  7.0448E-08  5.0120E-08  1.3478E-08  1.7888E-09  1.5748E-10
       1.0710E-11  6.6370E-13  4.1629E-14  2.2942E-15  5.7143E-17 -5.9256E-18 -7.5806E-19 -9.3004E-21  7.6185E-21  1.2130E-21
       1.0650E-22  4.9989E-24 -1.5762E-25 -6.5569E-26 -8.9729E-27 -9.1294E-28 -7.8940E-29 -6.1163E-30 -4.3699E-31 -2.9353E-32
      -1.8806E-33 -1.1608E-34 -6.9455E-36 -4.0251E-37 -2.2236E-38 -1.1077E-39 -4.0203E-41  6.2641E-43  3.8070E-43  5.9373E-44
       7.1630E-45  7.5235E-46  7.0439E-47  5.8884E-48  4.4782E-49  3.1140E-50  1.9983E-51  1.2130E-52  7.0444E-54  3.9552E-55
       2.1621E-56  1.1533E-57  6.0217E-59  3.0945E-60  1.5683E-61  7.8353E-63  3.8654E-64  1.8885E-65  9.1657E-67  4.4274E-68
       2.1262E-69  1.0129E-70  4.7966E-72  2.2663E-73  1.0710E-74  5.0494E-76  2.3683E-77  1.1089E-78  5.2027E-80  2.4378E-81
       1.1387E-82  5.3223E-84  2.4883E-85  1.1621E-86  5.4293E-88  2.5377E-89  1.1867E-90  5.5563E-92  2.6053E-93  1.2242E-94
       6.0632E-96
  21   1.7782E-20  5.5224E-20  1.8986E-19  6.5757E-19  2.2558E-18  7.6400E-18  2.5519E-17  8.4028E-17  2.7272E-16  8.7250E-16
       2.7528E-15  8.5728E-15  2.6389E-14  8.0439E-14  2.4341E-13  7.3369E-13  2.2129E-12  6.7282E-12  2.0902E-11  6.8180E-11
       2.4547E-10  1.0416E-09  5.4013E-09  3.2735E-08  1.7908E-07  4.1832E-07  2.4858E-07  5.3538E-08  6.2176E-09  4.8302E-10
       2.9092E-11  1.7999E-12  1.5047E-13  1.2925E-14  6.5906E-16 -2.6936E-17 -9.9136E-18 -1.1153E-18 -6.2871E-20  1.6365E-21
       8.8048E-22  1.2738E-22  1.2970E-23  1.0518E-24  6.9151E-26  3.4525E-27  8.5124E-29 -7.1300E-30 -1.4006E-30 -1.4999E-31
      -1.2871E-32 -9.6288E-34 -6.4523E-35 -3.8433E-36 -1.8911E-37 -4.9164E-39  4.9551E-40  1.1878E-40  1.6531E-41  1.9071E-42
       1.9550E-43  1.8118E-44  1.5017E-45  1.1398E-46  7.8902E-48  5.0669E-49  3.0860E-50  1.8024E-51  1.0154E-52  5.5508E-54
       2.9647E-55  1.5524E-56  7.9758E-58  4.0356E-59  2.0177E-60  9.9648E-62  4.8626E-63  2.3488E-64  1.1263E-65  5.3810E-67
       2.5597E-68  1.2097E-69  5.6775E-71  2.6569E-72  1.2440E-73  5.8178E-75  2.7090E-76  1.2587E-77  5.8593E-79  2.7263E-80
       1.2657E-81  5.8791E-83  2.7313E-84  1.2680E-85  5.8916E-87  2.7393E-88  1.2745E-89  5.9380E-91  2.7708E-92  1.2959E-93
       6.3803E-95
  22   1.1071E-19  3.5856E-19  1.2887E-18  4.6605E-18  1.6687E-17  5.8971E-17  2.0548E-16  7.0548E-16  2.3860E-15  7.9488E-15
       2.6092E-14  8.4445E-14  2.6977E-13  8.5207E-13  2.6670E-12  8.2998E-12  2.5806E-11  8.0760E-11  2.5738E-10  8.5068E-10
       2.9877E-09  1.1441E-08  4.8739E-08  2.3193E-07  1.0580E-06  2.2205E-06  1.0950E-06  2.0027E-07  2.1035E-08  1.4268E-09
       6.1966E-11  2.5880E-12  4.3971E-13  8.1843E-14  9.4902E-15  6.0988E-16 -9.1002E-18 -8.4030E-18 -1.3309E-18 -1.4140E-19
      -1.1294E-20 -6.3729E-22 -1.2014E-23  2.8997E-24  5.3647E-25  6.2509E-26  5.9808E-27  5.0629E-28  3.9201E-29  2.8327E-30
       1.9441E-31  1.2935E-32  8.6387E-34  6.1385E-35  4.9359E-36  4.5998E-37  4.7291E-38  4.9918E-39  5.1317E-40  4.9574E-41
       4.4281E-42  3.6068E-43  2.7195E-44  1.8688E-45  1.2008E-46  7.3186E-48  4.2768E-49  2.4179E-50  1.3284E-51  7.1078E-53
       3.7205E-54  1.9139E-55  9.6870E-57  4.8316E-58  2.3824E-59  1.1622E-60  5.6097E-62  2.6815E-63  1.2717E-64  6.0059E-66
       2.8264E-67  1.3234E-68  6.1574E-70  2.8549E-71  1.3238E-72  6.1364E-74  2.8352E-75  1.3072E-76  6.0352E-78  2.7863E-79
       1.2847E-80  5.9287E-82  2.7368E-83  1.2627E-84  5.8316E-86  2.6959E-87  1.2475E-88  5.7817E-90  2.6841E-91  1.2491E-92
       6.1111E-94
  23   6.4700E-19  2.1884E-18  8.2297E-18  3.1104E-17  1.1634E-16  4.2941E-16  1.5623E-15  5.5987E-15  1.9751E-14  6.8576E-14
       2.3436E-13  7.8865E-13  2.6155E-12  8.5598E-12  2.7696E-11  8.8824E-11  2.8342E-10  9.0416E-10  2.9021E-09  9.4428E-09
       3.1388E-08  1.0738E-07  3.8294E-07  1.4631E-06  5.5619E-06  1.0341E-05  4.3405E-06  7.3782E-07  7.5751E-08  4.5610E-09
       2.2934E-11 -2.5787E-11 -1.9814E-12  1.8249E-13  6.8451E-14  1.0541E-14  1.1155E-15  8.3862E-17  3.2529E-18 -2.5895E-19
      -7.6064E-20 -1.0862E-20 -1.2139E-21 -1.1755E-22 -1.0287E-23 -8.3188E-25 -6.2988E-26 -4.5007E-27 -3.0370E-28 -1.9127E-29
      -1.0753E-30 -4.5322E-32  1.9732E-34  3.9608E-34  6.9781E-35  9.3467E-36  1.0929E-36  1.1592E-37  1.1252E-38  9.8755E-40
       7.9687E-41  5.9332E-42  4.0548E-43  2.6053E-44  1.5928E-45  9.3381E-47  5.2820E-48  2.9024E-49  1.5576E-50  8.1767E-52
       4.2053E-53  2.1272E-54  1.0610E-55  5.2221E-57  2.5409E-58  1.2241E-59  5.8403E-61  2.7619E-62  1.2964E-63  6.0535E-65
       2.8170E-66  1.3054E-67  6.0180E-69  2.7642E-70  1.2690E-71  5.8252E-73  2.6681E-74  1.2203E-75  5.5883E-77  2.5588E-78
       1.1706E-79  5.3624E-81  2.4583E-82  1.1268E-83  5.1710E-85  2.3756E-86  1.0927E-87  5.0349E-89  2.3244E-90  1.0758E-91
       5.2281E-93
  24   3.5241E-18  1.2461E-17  4.9064E-17  1.9393E-16  7.5829E-16  2.9253E-15  1.1121E-14  4.1622E-14  1.5326E-13  5.5491E-13
       1.9753E-12  6.9123E-12  2.3790E-11  8.0600E-11  2.6913E-10  8.8698E-10  2.8907E-09  9.3339E-09  2.9893E-08  9.4878E-08
       2.9735E-07  9.1500E-07  2.7696E-06  8.5175E-06  2.6194E-05  4.0550E-05  1.6224E-05  2.9086E-06  3.4149E-07  2.3719E-08
      -1.7365E-10 -3.2177E-10 -5.3364E-11 -5.4173E-12 -3.1532E-13  9.0304E-15  5.6505E-15  9.9035E-16  1.2792E-16  1.3968E-17
       1.3567E-18  1.2037E-19  9.9174E-21  7.6828E-22  5.6626E-23  4.0273E-24  2.8202E-25  2.0149E-26  1.5532E-27  1.3681E-28
       1.4025E-29  1.5982E-30  1.8871E-31  2.2146E-32  2.4933E-33  2.6639E-34  2.6532E-35  2.4504E-36  2.0754E-37  1.6374E-38
       1.1878E-39  8.0289E-41  5.1332E-42  3.1327E-43  1.8387E-44  1.0437E-45  5.7485E-47  3.0833E-48  1.6185E-49  8.3391E-51
       4.2185E-52  2.0991E-53  1.0310E-54  5.0055E-56  2.4038E-57  1.1434E-58  5.3899E-60  2.5193E-61  1.1698E-62  5.4026E-64
       2.4857E-65  1.1391E-66  5.1980E-68  2.3647E-69  1.0748E-70  4.8831E-72  2.2145E-73  1.0036E-74  4.5559E-76  2.0685E-77
       9.3842E-79  4.2637E-80  1.9393E-81  8.8242E-83  4.0209E-84  1.8346E-85  8.3826E-87  3.8375E-88  1.7605E-89  8.0986E-91
       3.9070E-92
  25   1.7742E-17  6.5635E-17  2.7063E-16  1.1191E-15  4.5768E-15  1.8464E-14  7.3385E-14  2.8701E-13  1.1035E-12  4.1678E-12
       1.5454E-11  5.6235E-11  2.0075E-10  7.0317E-10  2.4177E-09  8.1620E-09  2.7057E-08  8.8018E-08  2.8024E-07  8.6800E-07
       2.5865E-06  7.2945E-06  1.9204E-05  4.8092E-05  1.1490E-04  1.2573E-04  6.1108E-05  1.3761E-05  2.1834E-06  2.4530E-07
       1.7195E-08 -9.2967E-11 -2.6607E-10 -5.4084E-11 -7.7252E-12 -9.1482E-13 -9.4793E-14 -8.8002E-15 -7.3972E-16 -5.6410E-17
      -3.8728E-18 -2.3320E-19 -1.1327E-20 -2.7962E-22  3.0406E-23  7.2982E-24  1.1047E-24  1.5232E-25  2.0516E-26  2.7026E-27
       3.4570E-28  4.2453E-29  4.9297E-30  5.4264E-31  5.5802E-32  5.3771E-33  4.7347E-34  3.8885E-35  2.9772E-36  2.1101E-37
       1.4089E-38  8.9534E-40  5.4527E-41  3.1979E-42  1.8144E-43  1.0007E-44  5.3826E-46  2.8278E-47  1.4551E-48  7.3618E-50
       3.6659E-51  1.7970E-52  8.6934E-54  4.1604E-55  1.9714E-56  9.2565E-58  4.3094E-59  1.9904E-60  9.1365E-62  4.1737E-63
       1.8987E-64  8.6017E-66  3.8811E-67  1.7471E-68  7.8615E-70  3.5357E-71  1.5871E-72  7.1195E-74  3.2002E-75  1.4395E-76
       6.4727E-78  2.9152E-79  1.3146E-80  5.9319E-82  2.6812E-83  1.2139E-84  5.5049E-86  2.5016E-87  1.1394E-88  5.2048E-90
       2.4907E-91
  26   8.1761E-17  3.1655E-16  1.3668E-15  5.9129E-15  2.5299E-14  1.0678E-13  4.4387E-13  1.8150E-12  7.2904E-12  2.8734E-11
       1.1101E-10  4.2002E-10  1.5548E-09  5.6261E-09  1.9885E-08  6.8585E-08  2.3046E-07  7.5230E-07  2.3738E-06  7.1753E-06
       2.0466E-05  5.3864E-05  1.2757E-04  2.7505E-04  5.4853E-04  1.0462E-03  2.5421E-04  7.3909E-05  1.5168E-05  2.3858E-06
       3.1144E-07  3.5146E-08  3.4758E-09  2.9844E-10  2.1210E-11  1.0393E-12 -7.4846E-15 -1.0485E-14 -1.7572E-15 -2.1420E-16
      -2.1976E-17 -1.9542E-18 -1.4544E-19 -7.3827E-21  1.8674E-22  1.3308E-22  2.6843E-23  4.2208E-24  5.8886E-25  7.5436E-26
       9.0229E-27  1.0151E-27  1.0643E-28  1.0493E-29  9.4999E-31  8.0384E-32  6.3988E-33  4.7096E-34  3.2609E-35  2.1463E-36
       1.3524E-37  8.2018E-39  4.8070E-40  2.7303E-41  1.5061E-42  8.0961E-44  4.2574E-45  2.1940E-46  1.1091E-47  5.5147E-49
       2.7034E-50  1.3068E-51  6.2346E-53  2.9422E-54  1.3756E-55  6.3768E-57  2.9317E-58  1.3377E-59  6.0668E-61  2.7402E-62
       1.2331E-63  5.5254E-65  2.4650E-66  1.0971E-67  4.8824E-69  2.1728E-70  9.6536E-72  4.2858E-73  1.9063E-74  8.4869E-76
       3.7784E-77  1.6853E-78  7.5286E-80  3.3658E-81  1.5075E-82  6.7642E-84  3.0408E-85  1.3701E-86  6.1883E-88  2.8034E-89
       1.3293E-90
  27   3.4089E-16  1.3811E-15  6.2424E-15  2.8249E-14  1.2644E-13  5.5836E-13  2.4285E-12  1.0387E-11  4.3623E-11  1.7957E-10
       7.2349E-10  2.8488E-09  1.0944E-08  4.0943E-08  1.4885E-07  5.2457E-07  1.7858E-06  5.8433E-06  1.8238E-05  5.3642E-05
       1.4574E-04  3.5415E-04  7.3224E-04  1.3079E-03  2.5302E-03  3.9690E-03  1.1065E-03  1.9104E-04  3.6506E-05  6.1447E-06
       9.2934E-07  1.2827E-07  1.6341E-08  1.9373E-09  2.1524E-10  2.2580E-11  2.2602E-12  2.1956E-13  2.1272E-14  2.1327E-15
       2.3065E-16  2.7458E-17  3.5414E-18  4.7442E-19  6.3921E-20  8.4800E-21  1.0876E-21  1.3345E-22  1.5644E-23  1.7372E-24
       1.8222E-25  1.8081E-26  1.6573E-27  1.4281E-28  1.1636E-29  8.8189E-31  6.2938E-32  4.2696E-33  2.7720E-34  1.7315E-35
       1.0447E-36  6.1073E-38  3.4691E-39  1.9189E-40  1.0348E-41  5.4477E-43  2.8084E-44  1.4217E-45  7.0736E-47  3.4631E-48
       1.6723E-49  7.9763E-51  3.7588E-52  1.7521E-53  8.0914E-55  3.7065E-56  1.6846E-57  7.6003E-59  3.4077E-60  1.5215E-61
       6.7719E-63  3.0028E-64  1.3258E-65  5.8375E-67  2.5691E-68  1.1307E-69  4.9698E-71  2.1832E-72  9.6081E-74  4.2320E-75
       1.8640E-76  8.2260E-78  3.6364E-79  1.6090E-80  7.1331E-82  3.1684E-83  1.4100E-84  6.2903E-86  2.8132E-87  1.2620E-88
       5.9216E-90
  28   1.2680E-15  5.3724E-15  2.5397E-14  1.2017E-13  5.6256E-13  2.5992E-12  1.1831E-11  5.2966E-11  2.3277E-10  1.0022E-09
       4.2189E-09  1.7327E-08  6.9271E-08  2.6882E-07  1.0095E-06  3.6539E-06  1.2684E-05  4.1944E-05  1.3091E-04  3.8048E-04
       1.0085E-03  2.3541E-03  4.5035E-03  6.6921E-03  9.6279E-03  1.1001E-02  2.6121E-03  2.0154E-04  3.2476E-05  5.9309E-06
       1.1258E-06  2.0389E-07  3.4499E-08  5.4572E-09  8.1485E-10  1.1645E-10  1.6171E-11  2.2136E-12  3.0161E-13  4.0998E-14
       5.5600E-15  7.4869E-16  9.9351E-17  1.2841E-17  1.6072E-18  1.9431E-19  2.2532E-20  2.4861E-21  2.6140E-22  2.5862E-23
       2.3924E-24  2.0946E-25  1.7391E-26  1.3493E-27  9.8910E-29  6.9031E-30  4.6145E-31  2.9684E-32  1.8443E-33  1.1100E-34
       6.4881E-36  3.6893E-37  2.0444E-38  1.1064E-39  5.8558E-41  3.0333E-42  1.5399E-43  7.6826E-45  3.7736E-46  1.8256E-47
       8.7104E-49  4.1067E-50  1.9150E-51  8.8366E-53  4.0394E-54  1.8313E-55  8.2404E-57  3.6826E-58  1.6357E-59  7.2319E-61
       3.1860E-62  1.3984E-63  6.1141E-65  2.6659E-66  1.1616E-67  5.0592E-69  2.2001E-70  9.5621E-72  4.1634E-73  1.8143E-74
       7.9044E-76  3.4498E-77  1.5082E-78  6.5995E-80  2.8934E-81  1.2710E-82  5.5936E-84  2.4676E-85  1.0913E-86  4.8410E-88
       2.2449E-89
  29   4.1368E-15  1.8303E-14  9.0366E-14  4.4655E-13  2.1850E-12  1.0560E-11  5.0313E-11  2.3588E-10  1.0860E-09  4.8995E-09
       2.1608E-08  9.2908E-08  3.8834E-07  1.5726E-06  6.1455E-06  2.3063E-05  8.2607E-05  2.8019E-04  8.9085E-04  2.6194E-03
       6.9929E-03  1.6512E-02  3.2947E-02  4.6405E-02  5.1725E-02  5.1351E-02  1.0941E-02 -2.7403E-04 -3.5257E-05  1.9132E-06
       2.2220E-06  7.4082E-07  1.8479E-07  3.9351E-08  7.5204E-09  1.3261E-09  2.1949E-10  3.4505E-11  5.1845E-12  7.4564E-13
       1.0290E-13  1.3652E-14  1.7413E-15  2.1228E-16  2.4685E-17  2.7434E-18  2.8968E-19  2.8695E-20  2.6937E-21  2.4059E-22
       2.0317E-23  1.6165E-24  1.2204E-25  8.7912E-27  6.0709E-28  4.0342E-29  2.5882E-30  1.6082E-31  9.7011E-33  5.6935E-34
       3.2565E-35  1.8174E-36  9.9047E-38  5.2778E-39  2.7549E-40  1.4103E-41  7.0846E-43  3.4980E-44  1.7017E-45  8.1626E-47
       3.8617E-48  1.8050E-49  8.3481E-51  3.8234E-52  1.7351E-53  7.8054E-55  3.4836E-56  1.5441E-57  6.8055E-59  2.9859E-60
       1.3048E-61  5.6779E-63  2.4603E-64  1.0631E-65  4.5909E-67  1.9812E-68  8.5332E-70  3.6715E-71  1.5821E-72  6.8226E-74
       2.9409E-75  1.2696E-76  5.4891E-78  2.3749E-79  1.0294E-80  4.4698E-82  1.9443E-83  8.4764E-85  3.7043E-86  1.6235E-87
       7.4338E-89
  30   1.1593E-14  5.3432E-14  2.7486E-13  1.4158E-12  7.2294E-12  3.6510E-11  1.8200E-10  8.9372E-10  4.3147E-09  2.0434E-08
       9.4685E-08  4.2805E-07  1.8819E-06  8.0153E-06  3.2922E-05  1.2972E-04  4.8706E-04  1.7277E-03  5.7274E-03  1.7499E-02
       4.8448E-02  0.1191      0.2540      0.3827      0.4927      0.5254      0.1225      2.2463E-03  3.0769E-05  6.9134E-05
       3.0614E-05  9.1698E-06  2.2615E-06  4.8883E-07  9.5359E-08  1.7111E-08  2.8588E-09  4.4864E-10  6.6505E-11  9.3077E-12
       1.2337E-12  1.5542E-13  1.8653E-14  2.1119E-15  2.2521E-16  2.2819E-17  2.2024E-18  2.0203E-19  1.7487E-20  1.4357E-21
       1.1235E-22  8.4135E-24  6.0456E-25  4.1802E-26  2.7895E-27  1.8009E-28  1.1272E-29  6.8556E-31  4.0599E-32  2.3447E-33
       1.3226E-34  7.2949E-36  3.9366E-37  2.0790E-38  1.0760E-39  5.4668E-41  2.7287E-42  1.3390E-43  6.4738E-45  3.0886E-46
       1.4542E-47  6.7619E-49  3.1098E-50  1.4165E-51  6.3964E-53  2.8639E-54  1.2715E-55  5.6019E-57  2.4534E-58  1.0697E-59
       4.6460E-61  2.0087E-62  8.6424E-64  3.7063E-65  1.5878E-66  6.7966E-68  2.9029E-69  1.2380E-70  5.2850E-72  2.2569E-73
       9.6313E-75  4.1150E-76  1.7602E-77  7.5326E-79  3.2284E-80  1.3858E-81  5.9581E-83  2.5668E-84  1.1082E-85  4.7976E-87
       2.1683E-88
  31   2.7211E-14  1.3008E-13  6.9439E-13  3.7155E-12  1.9741E-11  1.0392E-10  5.4110E-10  2.7810E-09  1.4079E-08  7.0067E-08
       3.4192E-07  1.6316E-06  7.5894E-06  3.4279E-05  1.4965E-04  6.2805E-04  2.5174E-03  9.5556E-03  3.3968E-02  0.1115    
       0.3318      0.8787       2.034       2.924       3.765       4.161      0.9955      8.7380E-02  1.0135E-02  2.0551E-03
       5.0290E-04  1.1958E-04  2.6212E-05  5.2602E-06  9.6885E-07  1.6526E-07  2.6305E-08  3.9289E-09  5.5295E-10  7.2723E-11
       8.9864E-12  1.0507E-12  1.1666E-13  1.2323E-14  1.2321E-15  1.1656E-16  1.0475E-17  8.9772E-19  7.3574E-20  5.7777E-21
       4.3567E-22  3.1617E-23  2.2125E-24  1.4960E-25  9.7951E-27  6.2230E-28  3.8428E-29  2.3104E-30  1.3548E-31  7.7574E-33
       4.3421E-34  2.3789E-35  1.2769E-36  6.7161E-38  3.4628E-39  1.7530E-40  8.7249E-42  4.2715E-43  2.0593E-44  9.7951E-46
       4.6015E-47  2.1355E-48  9.7966E-50  4.4481E-51  2.0018E-52  8.9347E-54  3.9552E-55  1.7368E-56  7.5754E-58  3.2877E-59
       1.4211E-60  6.1141E-62  2.6170E-63  1.1159E-64  4.7503E-66  2.0195E-67  8.5639E-69  3.6249E-70  1.5351E-71  6.4997E-73
       2.7488E-74  1.1634E-75  4.9279E-77  2.0875E-78  8.8526E-80  3.7591E-81  1.5982E-82  6.8066E-84  2.9044E-85  1.2423E-86
       5.5436E-88
  32   5.1973E-14  2.5581E-13  1.4073E-12  7.7713E-12  4.2707E-11  2.3311E-10  1.2618E-09  6.7622E-09  3.5813E-08  1.8707E-07
       9.6169E-07  4.8543E-06  2.3992E-05  1.1571E-04  5.4236E-04  2.4577E-03  1.0710E-02  4.4557E-02  0.1752      0.6411    
        2.142       6.357       16.07       18.82       19.27       17.34       4.762      0.7170      0.1233      2.5301E-02
       5.4557E-03  1.1353E-03  2.2141E-04  4.0109E-05  6.7079E-06  1.0443E-06  1.5261E-07  2.1028E-08  2.7394E-09  3.3796E-10
       3.9294E-11  4.3202E-12  4.5046E-13  4.4682E-14  4.2276E-15  3.8241E-16  3.3119E-17  2.7511E-18  2.1961E-19  1.6871E-20
       1.2490E-21  8.9243E-23  6.1641E-24  4.1225E-25  2.6746E-26  1.6862E-27  1.0348E-28  6.1917E-30  3.6173E-31  2.0655E-32
       1.1536E-33  6.3075E-35  3.3801E-36  1.7763E-37  9.1559E-39  4.6325E-40  2.3049E-41  1.1290E-42  5.4455E-44  2.5888E-45
       1.2152E-46  5.6377E-48  2.5860E-49  1.1736E-50  5.2747E-52  2.3500E-53  1.0384E-54  4.5521E-56  1.9814E-57  8.5765E-59
       3.6948E-60  1.5838E-61  6.7530E-63  2.8673E-64  1.2148E-65  5.1372E-67  2.1658E-68  9.1100E-70  3.8318E-71  1.6107E-72
       6.7590E-74  2.8369E-75  1.1912E-76  5.0002E-78  2.1003E-79  8.8303E-81  3.7157E-82  1.5657E-83  6.6074E-85  2.7943E-86
       1.2318E-87
  33   7.8832E-14  3.9572E-13  2.2224E-12  1.2550E-11  7.0668E-11  3.9617E-10  2.2083E-09  1.2224E-08  6.7108E-08  3.6485E-07
       1.9614E-06  1.0408E-05  5.4404E-05  2.7955E-04  1.4083E-03  6.9371E-03  3.3295E-02  0.1549      0.6937       2.956    
        11.75       41.92       124.3       97.85       71.09       49.69       19.44       4.328      0.9376      0.1925    
       3.6993E-02  6.6629E-03  1.1318E-03  1.8162E-04  2.7535E-05  3.9360E-06  5.3184E-07  6.8087E-08  8.2768E-09  9.5781E-10
       1.0565E-10  1.1125E-11  1.1199E-12  1.0792E-13  9.9671E-15  8.8367E-16  7.5283E-17  6.1686E-18  4.8684E-19  3.7059E-20
       2.7239E-21  1.9354E-22  1.3313E-23  8.8789E-25  5.7497E-26  3.6207E-27  2.2208E-28  1.3289E-29  7.7691E-31  4.4420E-32
       2.4857E-33  1.3621E-34  7.3135E-36  3.8517E-37  1.9906E-38  1.0097E-39  5.0326E-41  2.4700E-42  1.1946E-43  5.6930E-45
       2.6761E-46  1.2426E-47  5.7050E-49  2.5920E-50  1.1659E-51  5.1944E-53  2.2938E-54  1.0046E-55  4.3684E-57  1.8885E-58
       8.1210E-60  3.4730E-61  1.4766E-62  6.2496E-64  2.6385E-65  1.1112E-66  4.6635E-68  1.9516E-69  8.1628E-71  3.4103E-72
       1.4217E-73  5.9247E-75  2.4690E-76  1.0281E-77  4.2818E-79  1.7842E-80  7.4379E-82  3.1038E-83  1.2966E-84  5.4260E-86
       2.3651E-87
  34   9.3592E-14  4.7381E-13  2.6848E-12  1.5308E-11  8.7135E-11  4.9442E-10  2.7939E-09  1.5710E-08  8.7821E-08  4.8771E-07
       2.6888E-06  1.4708E-05  7.9772E-05  4.2889E-04  2.2853E-03  1.2069E-02  6.3165E-02  0.3276       1.684       8.565    
        43.00       211.5       1000.       393.6       217.9       1000.       52.20       14.74       3.309      0.6377    
       0.1115      1.8217E-02  2.8172E-03  4.1518E-04  5.8529E-05  7.8984E-06  1.0203E-06  1.2613E-07  1.4923E-08  1.6901E-09
       1.8328E-10  1.9041E-11  1.8967E-12  1.8131E-13  1.6648E-14  1.4700E-15  1.2495E-16  1.0230E-17  8.0766E-19  6.1558E-20
       4.5341E-21  3.2306E-22  2.2301E-23  1.4936E-24  9.7183E-26  6.1508E-27  3.7927E-28  2.2819E-29  1.3412E-30  7.7093E-32
       4.3385E-33  2.3916E-34  1.2915E-35  6.8384E-37  3.5538E-38  1.8132E-39  9.0852E-41  4.4782E-42  2.1751E-43  1.0415E-44
       4.9174E-46  2.2913E-47  1.0548E-48  4.8039E-50  2.1659E-51  9.6699E-53  4.2761E-54  1.8741E-55  8.1508E-57  3.5233E-58
       1.5145E-59  6.4707E-61  2.7469E-62  1.1602E-63  4.8859E-65  2.0516E-66  8.5797E-68  3.5759E-69  1.4887E-70  6.1872E-72
       2.5646E-73  1.0621E-74  4.3962E-76  1.8173E-77  7.5104E-79  3.1038E-80  1.2827E-81  5.3039E-83  2.1946E-84  9.0921E-86
       3.9204E-87
  35   8.7160E-14  4.3986E-13  2.4828E-12  1.4089E-11  7.9724E-11  4.4911E-10  2.5157E-09  1.3994E-08  7.7209E-08  4.2190E-07
       2.2803E-06  1.2172E-05  6.4044E-05  3.3153E-04  1.6846E-03  8.3782E-03  4.0631E-02  0.1912      0.8662       3.731    
        14.91       52.29       134.1       104.1       91.17       129.0       37.07       8.881       2.042      0.4230    
       8.0015E-02  1.4062E-02  2.3212E-03  3.6206E-04  5.3537E-05  7.5200E-06  1.0049E-06  1.2789E-07  1.5515E-08  1.7966E-09
       1.9876E-10  2.1029E-11  2.1302E-12  2.0684E-13  1.9272E-14  1.7253E-15  1.4859E-16  1.2324E-17  9.8526E-19  7.6017E-20
       5.6662E-21  4.0846E-22  2.8517E-23  1.9312E-24  1.2703E-25  8.1280E-27  5.0665E-28  3.0811E-29  1.8297E-30  1.0621E-31
       6.0342E-33  3.3582E-34  1.8308E-35  9.7792E-37  5.1238E-38  2.6361E-39  1.3322E-40  6.6177E-42  3.2356E-43  1.5590E-44
       7.4086E-46  3.4734E-47  1.6077E-48  7.3547E-50  3.3291E-51  1.4919E-52  6.6196E-54  2.9093E-55  1.2680E-56  5.4894E-58
       2.3621E-59  1.0099E-60  4.2876E-62  1.8102E-63  7.6150E-65  3.1925E-66  1.3323E-67  5.5378E-69  2.2979E-70  9.5129E-72
       3.9255E-73  1.6176E-74  6.6576E-76  2.7351E-77  1.1228E-78  4.6068E-80  1.8892E-81  7.7473E-83  3.1777E-84  1.3043E-85
       5.5675E-87
  36   6.5620E-14  3.2780E-13  1.8294E-12  1.0249E-11  5.7148E-11  3.1657E-10  1.7395E-09  9.4660E-09  5.0927E-08  2.7035E-07
       1.4133E-06  7.2587E-06  3.6531E-05  1.7957E-04  8.5891E-04  3.9789E-03  1.7743E-02  7.5555E-02  0.3037       1.131    
        3.779       10.62       21.65       26.75       54.94       249.8       50.92       7.835       1.464      0.2832    
       5.3153E-02  9.5071E-03  1.6131E-03  2.5939E-04  3.9537E-05  5.7166E-06  7.8489E-07  1.0244E-07  1.2721E-08  1.5052E-09
       1.6994E-10  1.8328E-11  1.8908E-12  1.8684E-13  1.7707E-14  1.6112E-15  1.4094E-16  1.1866E-17  9.6279E-19  7.5360E-20
       5.6970E-21  4.1644E-22  2.9473E-23  2.0222E-24  1.3472E-25  8.7272E-27  5.5068E-28  3.3893E-29  2.0368E-30  1.1962E-31
       6.8713E-33  3.8650E-34  2.1297E-35  1.1496E-36  6.0819E-38  3.1571E-39  1.6101E-40  8.0722E-42  3.9801E-43  1.9321E-44
       9.2456E-46  4.3643E-47  2.0334E-48  9.3585E-50  4.2582E-51  1.9170E-52  8.5421E-54  3.7687E-55  1.6481E-56  7.1543E-58
       3.0851E-59  1.3212E-60  5.6160E-62  2.3726E-63  9.9823E-65  4.1832E-66  1.7439E-67  7.2374E-69  2.9966E-70  1.2371E-71
       5.0877E-73  2.0882E-74  8.5556E-76  3.4969E-77  1.4274E-78  5.8202E-80  2.3706E-81  9.6507E-83  3.9273E-84  1.5985E-85
       6.7600E-87
  37   4.1509E-14  2.0462E-13  1.1256E-12  6.2050E-12  3.3981E-11  1.8447E-10  9.9088E-10  5.2568E-09  2.7489E-08  1.4135E-07
       7.1287E-07  3.5158E-06  1.6901E-05  7.8873E-05  3.5564E-04  1.5403E-03  6.3618E-03  2.4819E-02  9.0357E-02  0.3020    
       0.9078       2.416       6.009       18.87       102.8       1000.       91.67       10.12       1.522      0.2550    
       4.3856E-02  7.4571E-03  1.2297E-03  1.9478E-04  2.9492E-05  4.2589E-06  5.8616E-07  7.6885E-08  9.6140E-09  1.1470E-09
       1.3068E-10  1.4235E-11  1.4839E-12  1.4824E-13  1.4210E-14  1.3083E-15  1.1581E-16  9.8684E-18  8.1037E-19  6.4195E-20
       4.9117E-21  3.6343E-22  2.6037E-23  1.8084E-24  1.2192E-25  7.9921E-27  5.1011E-28  3.1747E-29  1.9290E-30  1.1455E-31
       6.6526E-33  3.7807E-34  2.1040E-35  1.1474E-36  6.1313E-38  3.2121E-39  1.6521E-40  8.3534E-42  4.1539E-43  2.0327E-44
       9.7970E-46  4.6552E-47  2.1828E-48  1.0108E-49  4.6250E-51  2.0925E-52  9.3651E-54  4.1483E-55  1.8206E-56  7.9281E-58
       3.4277E-59  1.4710E-60  6.2628E-62  2.6489E-63  1.1153E-64  4.6742E-66  1.9477E-67  8.0753E-69  3.3384E-70  1.3752E-71
       5.6405E-73  2.3076E-74  9.4183E-76  3.8325E-77  1.5567E-78  6.3121E-80  2.5553E-81  1.0333E-82  4.1748E-84  1.6860E-85
       7.0683E-87
  38   2.2991E-14  1.1182E-13  6.0621E-13  3.2889E-12  1.7694E-11  9.4183E-11  4.9500E-10  2.5634E-09  1.3052E-08  6.5178E-08
       3.1833E-07  1.5155E-06  7.0081E-06  3.1345E-05  1.3496E-04  5.5613E-04  2.1793E-03  8.0593E-03  2.7911E-02  8.9927E-02
       0.2695      0.7652       2.174       6.731       23.65       57.96       13.31       3.046      0.6696      0.1398    
       2.7377E-02  5.0197E-03  8.6328E-04  1.3974E-04  2.1368E-05  3.0961E-06  4.2616E-07  5.5837E-08  6.9758E-09  8.3209E-10
       9.4894E-11  1.0358E-11  1.0832E-12  1.0866E-13  1.0469E-14  9.6986E-16  8.6453E-17  7.4233E-18  6.1461E-19  4.9111E-20
       3.7911E-21  2.8308E-22  2.0471E-23  1.4355E-24  9.7742E-26  6.4714E-27  4.1718E-28  2.6217E-29  1.6081E-30  9.6409E-32
       5.6537E-33  3.2435E-34  1.8212E-35  1.0018E-36  5.4015E-38  2.8549E-39  1.4804E-40  7.5411E-42  3.7776E-43  1.8622E-44
       9.0380E-46  4.3218E-47  2.0382E-48  9.4894E-50  4.3647E-51  1.9842E-52  8.9180E-54  3.9651E-55  1.7460E-56  7.6262E-58
       3.3057E-59  1.4215E-60  6.0623E-62  2.5670E-63  1.0816E-64  4.5342E-66  1.8887E-67  7.8244E-69  3.2304E-70  1.3283E-71
       5.4345E-73  2.2167E-74  9.0158E-76  3.6538E-77  1.4772E-78  5.9591E-80  2.3986E-81  9.6384E-83  3.8672E-84  1.5501E-85
       6.4444E-87
  39   1.1835E-14  5.7025E-14  3.0609E-13  1.6431E-12  8.7402E-12  4.5972E-11  2.3867E-10  1.2208E-09  6.1407E-09  3.0324E-08
       1.4672E-07  6.9430E-07  3.2074E-06  1.4441E-05  6.3312E-05  2.7010E-04  1.1214E-03  4.5316E-03  1.7810E-02  6.7723E-02
       0.2456      0.8226       2.381       5.316       11.15       33.51       7.736       1.895      0.5986      0.1451    
       2.9541E-02  5.3424E-03  8.8451E-04  1.3645E-04  1.9834E-05  2.7365E-06  3.6002E-07  4.5314E-08  5.4687E-09  6.3377E-10
       7.0600E-11  7.5654E-12  7.8023E-13  7.7483E-14  7.4143E-15  6.8403E-16  6.0871E-17  5.2283E-18  4.3377E-19  3.4783E-20
       2.6975E-21  2.0250E-22  1.4731E-23  1.0397E-24  7.1282E-26  4.7539E-27  3.0882E-28  1.9561E-29  1.2094E-30  7.3071E-32
       4.3190E-33  2.4979E-34  1.4137E-35  7.8353E-37  4.2557E-38  2.2663E-39  1.1839E-40  6.0723E-42  3.0612E-43  1.5183E-44
       7.4135E-46  3.5654E-47  1.6903E-48  7.9075E-50  3.6532E-51  1.6677E-52  7.5240E-54  3.3566E-55  1.4825E-56  6.4917E-58
       2.8200E-59  1.2149E-60  5.1882E-62  2.1989E-63  9.2695E-65  3.8863E-66  1.6181E-67  6.6972E-69  2.7612E-70  1.1332E-71
       4.6252E-73  1.8811E-74  7.6242E-76  3.0775E-77  1.2386E-78  4.9711E-80  1.9896E-81  7.9454E-83  3.1662E-84  1.2598E-85
       5.1941E-87
  40   6.3526E-15  3.0764E-14  1.6616E-13  8.9919E-13  4.8344E-12  2.5791E-11  1.3644E-10  7.1544E-10  3.7171E-09  1.9139E-08
       9.7704E-08  4.9479E-07  2.4875E-06  1.2424E-05  6.1666E-05  3.0395E-04  1.4849E-03  7.1594E-03  3.3829E-02  0.1548    
       0.6739       2.700       9.340       24.19       44.83       120.1       34.23       9.135       2.371      0.4782    
       8.2729E-02  1.2912E-02  1.8668E-03  2.5375E-04  3.2736E-05  4.0345E-06  4.7720E-07  5.4365E-08  5.9839E-09  6.3778E-10
       6.5923E-11  6.6157E-12  6.4502E-13  6.1107E-14  5.6245E-15  5.0289E-16  4.3657E-17  3.6789E-18  3.0091E-19  2.3889E-20
       1.8407E-21  1.3768E-22  1.0002E-23  7.0620E-25  4.8504E-26  3.2439E-27  2.1151E-28  1.3460E-29  8.3660E-31  5.0833E-32
       3.0216E-33  1.7580E-34  1.0014E-35  5.5857E-37  3.0521E-38  1.6348E-39  8.5920E-41  4.4334E-42  2.2475E-43  1.1206E-44
       5.4986E-46  2.6572E-47  1.2655E-48  5.9451E-50  2.7571E-51  1.2629E-52  5.7161E-54  2.5574E-55  1.1323E-56  4.9686E-58
       2.1621E-59  9.3271E-61  3.9872E-62  1.6909E-63  7.1293E-65  2.9884E-66  1.2434E-67  5.1404E-69  2.1159E-70  8.6658E-72
       3.5279E-73  1.4304E-74  5.7769E-76  2.3223E-77  9.3035E-79  3.7147E-80  1.4783E-81  5.8664E-83  2.3217E-84  9.1682E-86
       3.7485E-87
  41   4.1776E-15  2.0819E-14  1.1603E-13  6.5045E-13  3.6403E-12  2.0328E-11  1.1326E-10  6.2962E-10  3.4917E-09  1.9318E-08
       1.0660E-07  5.8657E-07  3.2158E-06  1.7547E-05  9.5164E-05  5.1192E-04  2.7245E-03  1.4295E-02  7.3589E-02  0.3689    
        1.779       8.072       32.99       110.4       180.8       1000.       109.7       31.86       6.842       1.216    
       0.1917      2.7759E-02  3.7624E-03  4.8206E-04  5.8739E-05  6.8354E-06  7.6196E-07  8.1582E-08  8.4122E-09  8.3744E-10
       8.0665E-11  7.5347E-12  6.8404E-13  6.0474E-14  5.2138E-15  4.3881E-16  3.6072E-17  2.8968E-18  2.2728E-19  1.7419E-20
       1.3036E-21  9.5241E-23  6.7929E-24  4.7298E-25  3.2153E-26  2.1349E-27  1.3854E-28  8.7926E-30  5.4610E-31  3.3206E-32
       1.9771E-33  1.1529E-34  6.5878E-36  3.6889E-37  2.0239E-38  1.0885E-39  5.7440E-41  2.9766E-42  1.5156E-43  7.5886E-45
       3.7383E-46  1.8132E-47  8.6670E-49  4.0853E-50  1.9005E-51  8.7301E-53  3.9612E-54  1.7762E-55  7.8791E-57  3.4631E-58
       1.5089E-59  6.5150E-61  2.7867E-62  1.1821E-63  4.9829E-65  2.0875E-66  8.6772E-68  3.5820E-69  1.4717E-70  6.0131E-72
       2.4411E-73  9.8651E-75  3.9692E-76  1.5888E-77  6.3346E-79  2.5159E-80  9.9532E-82  3.9242E-83  1.5420E-84  6.0426E-86
       2.4494E-87
  42   3.4769E-15  1.7976E-14  1.0400E-13  6.0596E-13  3.5310E-12  2.0561E-11  1.1959E-10  6.9446E-10  4.0242E-09  2.3254E-08
       1.3393E-07  7.6804E-07  4.3821E-06  2.4847E-05  1.3983E-04  7.7980E-04  4.3014E-03  2.3413E-02  0.1253      0.6562    
        3.334       16.24       74.47       315.8       312.9       542.9       152.4       33.27       6.795       1.246    
       0.2058      3.1083E-02  4.3532E-03  5.7137E-04  7.0795E-05  8.3231E-06  9.3195E-07  9.9683E-08  1.0212E-08  1.0046E-09
       9.5069E-11  8.6734E-12  7.6458E-13  6.5277E-14  5.4087E-15  4.3577E-16  3.4202E-17  2.6194E-18  1.9600E-19  1.4344E-20
       1.0275E-21  7.2098E-23  4.9588E-24  3.3441E-25  2.2117E-26  1.4351E-27  9.1388E-29  5.7120E-30  3.5050E-31  2.1119E-32
       1.2492E-33  7.2514E-35  4.1307E-36  2.3093E-37  1.2666E-38  6.8148E-40  3.5999E-41  1.8681E-42  9.5297E-44  4.7817E-45
       2.3608E-46  1.1476E-47  5.4973E-49  2.5968E-50  1.2105E-51  5.5711E-53  2.5320E-54  1.1370E-55  5.0500E-57  2.2218E-58
       9.6875E-60  4.1844E-61  1.7900E-62  7.5913E-64  3.1980E-65  1.3384E-66  5.5558E-68  2.2893E-69  9.3850E-71  3.8245E-72
       1.5478E-73  6.2330E-75  2.4977E-76  9.9531E-78  3.9484E-79  1.5594E-80  6.1316E-82  2.4012E-83  9.3664E-85  3.6411E-86
       1.4628E-87
  43   3.1469E-15  1.6708E-14  9.9142E-14  5.9203E-13  3.5340E-12  2.1068E-11  1.2536E-10  7.4420E-10  4.4047E-09  2.5978E-08
       1.5258E-07  8.9194E-07  5.1863E-06  2.9980E-05  1.7220E-04  9.8246E-04  5.5652E-03  3.1301E-02  0.1748      0.9708    
        5.373       29.83       168.5       1000.       412.1       1000.       164.7       29.36       5.345      0.9424    
       0.1564      2.4225E-02  3.5039E-03  4.7531E-04  6.0742E-05  7.3429E-06  8.4258E-07  9.2043E-08  9.5970E-09  9.5735E-10
       9.1555E-11  8.4090E-12  7.4325E-13  6.3350E-14  5.2164E-15  4.1564E-16  3.2106E-17  2.4091E-18  1.7589E-19  1.2514E-20
       8.6886E-22  5.8976E-23  3.9196E-24  2.5537E-25  1.6331E-26  1.0265E-27  6.3477E-29  3.8634E-30  2.3150E-31  1.3664E-32
       7.9421E-34  4.5435E-35  2.5572E-36  1.4155E-37  7.7022E-39  4.1194E-40  2.1662E-41  1.1202E-42  5.7002E-44  2.8553E-45
       1.4082E-46  6.8421E-48  3.2768E-49  1.5479E-50  7.2173E-52  3.3225E-53  1.5105E-54  6.7846E-56  3.0137E-57  1.3260E-58
       5.7807E-60  2.4959E-61  1.0670E-62  4.5213E-64  1.9024E-65  7.9496E-67  3.2938E-68  1.3542E-69  5.5370E-71  2.2496E-72
       9.0727E-74  3.6394E-75  1.4521E-76  5.7584E-78  2.2722E-79  8.9215E-81  3.4853E-82  1.3553E-83  5.2460E-85  2.0225E-86
       8.0503E-88
  44   2.6854E-15  1.4482E-14  8.7130E-14  5.2682E-13  3.1805E-12  1.9153E-11  1.1497E-10  6.8741E-10  4.0916E-09  2.4228E-08
       1.4260E-07  8.3360E-07  4.8353E-06  2.7800E-05  1.5821E-04  8.8988E-04  4.9360E-03  2.6925E-02  0.1438      0.7470    
        3.729       17.45       71.69       188.7       133.5       244.0       63.91       14.02       2.786      0.5142    
       8.8507E-02  1.4215E-02  2.1343E-03  3.0043E-04  3.9787E-05  4.9742E-06  5.8895E-07  6.6228E-08  7.0909E-09  7.2453E-10
       7.0797E-11  6.6281E-12  5.9570E-13  5.1495E-14  4.2885E-15  3.4455E-16  2.6747E-17  2.0098E-18  1.4641E-19  1.0354E-20
       7.1200E-22  4.7692E-23  3.1171E-24  1.9911E-25  1.2451E-26  7.6388E-28  4.6053E-29  2.7314E-30  1.5954E-31  9.1857E-33
       5.2156E-34  2.9200E-35  1.6116E-36  8.7646E-38  4.6948E-39  2.4769E-40  1.2874E-41  6.5915E-43  3.3257E-44  1.6540E-45
       8.1087E-47  3.9204E-48  1.8700E-49  8.8035E-51  4.0932E-52  1.8798E-53  8.5291E-55  3.8240E-56  1.6957E-57  7.4492E-59
       3.2424E-60  1.3977E-61  5.9647E-63  2.5226E-64  1.0593E-65  4.4159E-67  1.8249E-68  7.4812E-70  3.0490E-71  1.2343E-72
       4.9584E-74  1.9803E-75  7.8635E-77  3.1020E-78  1.2170E-79  4.7483E-81  1.8423E-82  7.1106E-84  2.7303E-85  1.0435E-86
       4.1136E-88
  45   2.0276E-15  1.1029E-14  6.6786E-14  4.0572E-13  2.4569E-12  1.4815E-11  8.8882E-11  5.3006E-10  3.1396E-09  1.8452E-08
       1.0748E-07  6.1962E-07  3.5294E-06  1.9829E-05  1.0959E-04  5.9395E-04  3.1428E-03  1.6136E-02  7.9671E-02  0.3729    
        1.614       6.168       18.74       37.17       34.80       52.59       17.98       4.596       1.029      0.2071    
       3.8106E-02  6.4685E-03  1.0197E-03  1.5008E-04  2.0711E-05  2.6905E-06  3.3013E-07  3.8381E-08  4.2391E-09  4.4584E-10
       4.4748E-11  4.2949E-12  3.9497E-13  3.4870E-14  2.9602E-15  2.4197E-16  1.9073E-17  1.4518E-18  1.0688E-19  7.6185E-21
       5.2662E-22  3.5357E-23  2.3093E-24  1.4696E-25  9.1300E-27  5.5480E-28  3.3036E-29  1.9306E-30  1.1090E-31  6.2708E-33
       3.4929E-34  1.9173E-35  1.0375E-36  5.5345E-38  2.9097E-39  1.5082E-40  7.7104E-42  3.8882E-43  1.9348E-44  9.5030E-46
       4.6070E-47  2.2055E-48  1.0428E-49  4.8716E-51  2.2497E-52  1.0270E-53  4.6348E-55  2.0681E-56  9.1310E-58  3.9952E-59
       1.7326E-60  7.4421E-62  3.1649E-63  1.3340E-64  5.5821E-66  2.3188E-67  9.5470E-69  3.8985E-70  1.5823E-71  6.3774E-73
       2.5497E-74  1.0132E-75  4.0012E-77  1.5691E-78  6.1171E-80  2.3705E-81  9.1294E-83  3.4957E-84  1.3308E-85  5.0399E-87
       1.9668E-88
  46   1.3312E-15  7.2700E-15  4.4113E-14  2.6798E-13  1.6193E-12  9.7233E-12  5.7955E-11  3.4249E-10  2.0045E-09  1.1604E-08
       6.6350E-08  3.7393E-07  2.0720E-06  1.1258E-05  5.9770E-05  3.0857E-04  1.5392E-03  7.3507E-03  3.3184E-02  0.1389    
       0.5219       1.672       4.193       7.271       7.853       10.34       4.217       1.201      0.2968      6.5231E-02
       1.2947E-02  2.3469E-03  3.9196E-04  6.0741E-05  8.7850E-06  1.1914E-06  1.5211E-07  1.8348E-08  2.0975E-09  2.2783E-10
       2.3568E-11  2.3272E-12  2.1980E-13  1.9894E-14  1.7286E-15  1.4441E-16  1.1615E-17  9.0075E-19  6.7444E-20  4.8813E-21
       3.4194E-22  2.3218E-23  1.5304E-24  9.8072E-26  6.1211E-27  3.7281E-28  2.2193E-29  1.2933E-30  7.3910E-32  4.1489E-33
       2.2894E-34  1.2425E-35  6.6378E-37  3.4917E-38  1.8086E-39  9.2312E-41  4.6458E-42  2.3063E-43  1.1302E-44  5.4699E-46
       2.6148E-47  1.2354E-48  5.7699E-50  2.6650E-51  1.2179E-52  5.5066E-54  2.4634E-55  1.0904E-56  4.7786E-58  2.0765E-59
       8.9485E-61  3.8208E-62  1.6156E-63  6.7723E-65  2.8190E-66  1.1649E-67  4.7708E-69  1.9378E-70  7.8226E-72  3.1351E-73
       1.2462E-74  4.9219E-76  1.9314E-77  7.5233E-79  2.9121E-80  1.1199E-81  4.2785E-83  1.6243E-84  6.1273E-86  2.2979E-87
       8.8722E-89
  47   7.6063E-16  4.1593E-15  2.5217E-14  1.5272E-13  9.1779E-13  5.4671E-12  3.2248E-11  1.8808E-10  1.0830E-09  6.1464E-09
       3.4320E-08  1.8809E-07  1.0085E-06  5.2703E-06  2.6723E-05  1.3069E-04  6.1146E-04  2.7066E-03  1.1161E-02  4.1936E-02
       0.1390      0.3881      0.8548       1.375       1.589       1.887      0.8644      0.2729      7.1879E-02  1.6971E-02
       3.6142E-03  6.9977E-04  1.2417E-04  2.0341E-05  3.0953E-06  4.3987E-07  5.8637E-08  7.3620E-09  8.7361E-10  9.8269E-11
       1.0505E-11  1.0700E-12  1.0406E-13  9.6826E-15  8.6356E-16  7.3932E-17  6.0857E-18  4.8237E-19  3.6865E-20  2.7195E-21
       1.9390E-22  1.3381E-23  8.9505E-25  5.8111E-26  3.6682E-27  2.2555E-28  1.3531E-29  7.9300E-31  4.5489E-32  2.5581E-33
       1.4112E-34  7.6420E-36  4.0656E-37  2.1259E-38  1.0929E-39  5.5279E-41  2.7534E-42  1.3514E-43  6.5430E-45  3.1270E-46
       1.4758E-47  6.8833E-49  3.1742E-50  1.4480E-51  6.5390E-53  2.9226E-54  1.2932E-55  5.6654E-57  2.4585E-58  1.0585E-59
       4.5215E-61  1.9146E-62  8.0321E-64  3.3412E-65  1.3806E-66  5.6645E-68  2.3036E-69  9.2915E-71  3.7248E-72  1.4824E-73
       5.8501E-75  2.2937E-76  8.9332E-78  3.4527E-79  1.3256E-80  5.0550E-82  1.9140E-83  7.1984E-85  2.6888E-86  9.9792E-88
       3.8095E-89
  48   3.8101E-16  2.0827E-15  1.2592E-14  7.5881E-14  4.5259E-13  2.6685E-12  1.5536E-11  8.9181E-11  5.0376E-10  2.7947E-09
       1.5191E-08  8.0693E-08  4.1730E-07  2.0914E-06  1.0101E-05  4.6685E-05  2.0462E-04  8.4011E-04  3.1775E-03  1.0825E-02
       3.2248E-02  8.0772E-02  0.1620      0.2480      0.2940      0.3223      0.1597      5.4967E-02  1.5277E-02  3.7988E-03
       8.5807E-04  1.7641E-04  3.3188E-05  5.7473E-06  9.2145E-07  1.3749E-07  1.9181E-08  2.5127E-09  3.1026E-10  3.6229E-11
       4.0116E-12  4.2234E-13  4.2382E-14  4.0629E-15  3.7273E-16  3.2775E-17  2.7671E-18  2.2467E-19  1.7566E-20  1.3240E-21
       9.6331E-23  6.7761E-24  4.6145E-25  3.0461E-26  1.9523E-27  1.2172E-28  7.3928E-30  4.3806E-31  2.5369E-32  1.4379E-33
       7.9815E-35  4.3417E-36  2.3165E-37  1.2127E-38  6.2305E-40  3.1446E-41  1.5604E-42  7.6183E-44  3.6645E-45  1.7380E-46
       8.1318E-48  3.7574E-49  1.7155E-50  7.7448E-52  3.4606E-53  1.5302E-54  6.6981E-56  2.9035E-57  1.2469E-58  5.3136E-60
       2.2474E-61  9.4254E-63  3.9171E-64  1.6146E-65  6.6125E-67  2.6895E-68  1.0844E-69  4.3371E-71  1.7241E-72  6.8037E-74
       2.6623E-75  1.0349E-76  3.9957E-78  1.5306E-79  5.8228E-81  2.1994E-82  8.2462E-84  3.0696E-85  1.1344E-86  4.1636E-88
       1.5704E-89
  49   1.6870E-16  9.2103E-16  5.5478E-15  3.3221E-14  1.9639E-13  1.1444E-12  6.5649E-12  3.7020E-11  2.0479E-10  1.1086E-09
       5.8556E-09  3.0087E-08  1.4979E-07  7.1884E-07  3.3042E-06  1.4434E-05  5.9327E-05  2.2657E-04  7.9077E-04  2.4693E-03
       6.7174E-03  1.5419E-02  2.8782E-02  4.2434E-02  5.0369E-02  5.1767E-02  2.7057E-02  9.9632E-03  2.9366E-03  7.5300E-04
       1.7800E-04  3.8525E-05  7.6429E-06  1.3952E-06  2.3542E-07  3.6886E-08  5.3903E-09  7.3781E-10  9.4961E-11  1.1531E-11
       1.3250E-12  1.4446E-13  1.4986E-14  1.4827E-15  1.4016E-16  1.2681E-17  1.1001E-18  9.1665E-20  7.3454E-21  5.6672E-22
       4.2158E-23  3.0287E-24  2.1042E-25  1.4154E-26  9.2338E-28  5.8528E-29  3.6099E-30  2.1697E-31  1.2730E-32  7.3003E-34
       4.0945E-35  2.2475E-36  1.2084E-37  6.3653E-39  3.2858E-40  1.6638E-41  8.2701E-43  4.0388E-44  1.9407E-45  9.1824E-47
       4.2808E-48  1.9688E-49  8.9371E-51  4.0083E-52  1.7781E-53  7.8002E-55  3.3856E-56  1.4547E-57  6.1909E-59  2.6138E-60
       1.0952E-61  4.5501E-63  1.8732E-64  7.6487E-66  3.1032E-67  1.2505E-68  4.9952E-70  1.9792E-71  7.7947E-73  3.0473E-74
       1.1812E-75  4.5480E-77  1.7389E-78  6.5956E-80  2.4839E-81  9.2853E-83  3.4443E-84  1.2681E-85  4.6330E-87  1.6804E-88
       6.2578E-90
  50   6.6580E-17  3.6298E-16  2.1770E-15  1.2945E-14  7.5786E-14  4.3607E-13  2.4623E-12  1.3623E-11  7.3696E-11  3.8879E-10
       1.9937E-09  9.9006E-09  4.7407E-08  2.1772E-07  9.5244E-07  3.9363E-06  1.5210E-05  5.4257E-05  1.7592E-04  5.0848E-04
       1.2800E-03  2.7332E-03  4.8149E-03  6.8706E-03  8.0533E-03  7.8448E-03  4.2500E-03  1.6487E-03  5.1184E-04  1.3624E-04
       3.3004E-05  7.4344E-06  1.5441E-06  2.9572E-07  5.2363E-08  8.6020E-09  1.3161E-09  1.8828E-10  2.5278E-11  3.1957E-12
       3.8155E-13  4.3147E-14  4.6343E-15  4.7393E-16  4.6238E-17  4.3112E-18  3.8491E-19  3.2963E-20  2.7114E-21  2.1447E-22
       1.6339E-23  1.2008E-24  8.5244E-26  5.8525E-27  3.8929E-28  2.5135E-29  1.5775E-30  9.6381E-32  5.7420E-33  3.3402E-34
       1.8981E-35  1.0545E-36  5.7316E-38  3.0484E-39  1.5868E-40  8.0914E-42  4.0452E-43  1.9844E-44  9.5659E-46  4.5350E-47
       2.1158E-48  9.7274E-50  4.4091E-51  1.9725E-52  8.7200E-54  3.8090E-55  1.6448E-56  7.0258E-58  2.9708E-59  1.2456E-60
       5.1803E-62  2.1354E-63  8.7198E-65  3.5306E-66  1.4201E-67  5.6721E-69  2.2453E-70  8.8146E-72  3.4389E-73  1.3316E-74
       5.1111E-76  1.9484E-77  7.3744E-79  2.7681E-80  1.0314E-81  3.8137E-83  1.3988E-84  5.0905E-86  1.8377E-87  6.5831E-89
       2.4192E-90
  51   2.3588E-17  1.2842E-16  7.6692E-16  4.5268E-15  2.6232E-14  1.4897E-13  8.2755E-13  4.4890E-12  2.3726E-11  1.2188E-10
       6.0633E-10  2.9093E-09  1.3398E-08  5.8899E-08  2.4541E-07  9.6108E-07  3.5018E-06  1.1724E-05  3.5541E-05  9.5901E-05
       2.2569E-04  4.5323E-04  7.6034E-04  1.0523E-03  1.2083E-03  1.1242E-03  6.2329E-04  2.5160E-04  8.1575E-05  2.2576E-05
       5.5913E-06  1.2896E-06  2.7783E-07  5.5490E-08  1.0269E-08  1.7639E-09  2.8209E-10  4.2143E-11  5.9015E-12  7.7703E-13
       9.6471E-14  1.1326E-14  1.2611E-15  1.3348E-16  1.3458E-17  1.2950E-18  1.1915E-19  1.0503E-20  8.8803E-22  7.2117E-23
       5.6343E-24  4.2418E-25  3.0811E-26  2.1620E-27  1.4684E-28  9.6717E-30  6.1865E-31  3.8482E-32  2.3319E-33  1.3784E-34
       7.9523E-36  4.4806E-37  2.4675E-38  1.3281E-39  6.9877E-41  3.5980E-42  1.8142E-43  8.9661E-45  4.3498E-46  2.0728E-47
       9.7105E-49  4.4782E-50  2.0339E-51  9.1076E-53  4.0265E-54  1.7573E-55  7.5740E-57  3.2264E-58  1.3595E-59  5.6762E-61
       2.3492E-62  9.6304E-64  3.9086E-65  1.5721E-66  6.2789E-68  2.4891E-69  9.7749E-71  3.8054E-72  1.4717E-73  5.6472E-75
       2.1473E-76  8.1065E-78  3.0374E-79  1.1284E-80  4.1596E-82  1.5211E-83  5.5157E-85  1.9836E-86  7.0735E-88  2.5018E-89
       9.0687E-91
  52   7.5504E-18  4.1074E-17  2.4428E-16  1.4312E-15  8.2057E-15  4.5969E-14  2.5114E-13  1.3353E-12  6.8940E-12  3.4467E-11
       1.6630E-10  7.7090E-10  3.4158E-09  1.4385E-08  5.7171E-08  2.1263E-07  7.3277E-07  2.3129E-06  6.5953E-06  1.6733E-05
       3.7115E-05  7.0662E-05  1.1356E-04  1.5254E-04  1.7077E-04  1.5258E-04  8.5762E-05  3.5667E-05  1.1981E-05  3.4333E-06
       8.7473E-07  2.0443E-07  4.5116E-08  9.3278E-09  1.7950E-09  3.2129E-10  5.3574E-11  8.3446E-12  1.2177E-12  1.6693E-13
       2.1554E-14  2.6285E-15  3.0359E-16  3.3291E-17  3.4729E-18  3.4528E-19  3.2782E-20  2.9778E-21  2.5915E-22  2.1635E-23
       1.7355E-24  1.3401E-25  9.9722E-27  7.1611E-28  4.9724E-29  3.3454E-30  2.1836E-31  1.3847E-32  8.5468E-34  5.1414E-35
       3.0156E-36  1.7259E-37  9.6453E-39  5.2626E-40  2.8039E-41  1.4606E-42  7.4430E-44  3.7138E-45  1.8173E-46  8.7256E-48
       4.1143E-49  1.9082E-50  8.7075E-52  3.9135E-53  1.7349E-54  7.5858E-56  3.2727E-57  1.3941E-58  5.8697E-60  2.4468E-61
       1.0102E-62  4.1282E-64  1.6690E-65  6.6825E-67  2.6551E-68  1.0464E-69  4.0830E-71  1.5784E-72  6.0586E-74  2.3061E-75
       8.6940E-77  3.2528E-78  1.2073E-79  4.4407E-81  1.6201E-82  5.8605E-84  2.1012E-85  7.4679E-87  2.6304E-88  9.1847E-90
       3.2835E-91
  53   2.1970E-18  1.1949E-17  7.0806E-17  4.1186E-16  2.3362E-15  1.2905E-14  6.9311E-14  3.6112E-13  1.8209E-12  8.8595E-12
       4.1454E-11  1.8570E-10  7.9217E-10  3.1991E-09  1.2147E-08  4.3013E-08  1.4068E-07  4.2038E-07  1.1335E-06  2.7201E-06
       5.7231E-06  1.0392E-05  1.6063E-05  2.0943E-05  2.2795E-05  1.9636E-05  1.1109E-05  4.7213E-06  1.6313E-06  4.8168E-07
       1.2610E-07  3.0102E-08  6.6969E-09  1.4195E-09  2.8238E-10  5.2446E-11  9.0903E-12  1.4729E-12  2.2363E-13  3.1889E-14
       4.2804E-15  5.4219E-16  6.4985E-17  7.3874E-18  7.9796E-19  8.2045E-20  8.0462E-21  7.5407E-22  6.7623E-23  5.8101E-24
       4.7910E-25  3.7985E-26  2.8993E-27  2.1332E-28  1.5162E-29  1.0432E-30  6.9560E-32  4.5021E-33  2.8340E-34  1.7372E-35
       1.0373E-36  6.0376E-38  3.4285E-39  1.8988E-40  1.0260E-41  5.4148E-43  2.7929E-44  1.4092E-45  6.9670E-47  3.3766E-48
       1.6055E-49  7.5026E-51  3.4467E-52  1.5581E-53  6.9410E-55  3.0471E-56  1.3187E-57  5.6301E-59  2.3737E-60  9.9003E-62
       4.0865E-63  1.6682E-64  6.7314E-66  2.6881E-67  1.0645E-68  4.1780E-70  1.6223E-71  6.2368E-73  2.3792E-74  8.9942E-76
       3.3656E-77  1.2491E-78  4.5962E-80  1.6750E-81  6.0513E-83  2.1664E-84  7.6825E-86  2.6990E-87  9.3919E-89  3.2377E-90
       1.1415E-91
  54   5.8443E-19  3.1782E-18  1.8770E-17  1.0843E-16  6.0855E-16  3.3146E-15  1.7497E-14  8.9323E-14  4.3985E-13  2.0831E-12
       9.4548E-12  4.0952E-11  1.6834E-10  6.5274E-10  2.3718E-09  8.0146E-09  2.4955E-08  7.0877E-08  1.8155E-07  4.1417E-07
       8.3068E-07  1.4452E-06  2.1546E-06  2.7261E-06  2.8802E-06  2.3984E-06  1.3580E-06  5.8579E-07  2.0684E-07  6.2611E-08
       1.6799E-08  4.0976E-09  9.2661E-10  1.9775E-10  4.0325E-11  7.7322E-12  1.3881E-12  2.3335E-13  3.6791E-14  5.4496E-15
       7.5972E-16  9.9906E-17  1.2425E-17  1.4646E-18  1.6389E-19  1.7437E-20  1.7678E-21  1.7109E-22  1.5826E-23  1.4008E-24
       1.1886E-25  9.6870E-27  7.5920E-28  5.7298E-29  4.1733E-30  2.9394E-31  2.0046E-32  1.3258E-33  8.5208E-35  5.3285E-36
       3.2427E-37  1.9218E-38  1.1102E-39  6.2486E-41  3.4281E-42  1.8354E-43  9.5942E-45  4.9014E-46  2.4516E-47  1.2010E-48
       5.7672E-50  2.7195E-51  1.2597E-52  5.7369E-54  2.5723E-55  1.1356E-56  4.9387E-58  2.1169E-59  8.9530E-61  3.7428E-62
       1.5472E-63  6.3200E-65  2.5498E-66  1.0172E-67  4.0208E-69  1.5740E-70  6.0910E-72  2.3318E-73  8.8518E-75  3.3274E-76
       1.2372E-77  4.5592E-79  1.6646E-80  6.0149E-82  2.1531E-83  7.6325E-85  2.6783E-86  9.3043E-88  3.1992E-89  1.0890E-90
       3.7866E-92
  55   1.4291E-19  7.7727E-19  4.5750E-18  2.6245E-17  1.4575E-16  7.8274E-16  4.0607E-15  2.0311E-14  9.7693E-14  4.5046E-13
       1.9840E-12  8.3128E-12  3.2961E-11  1.2292E-10  4.2826E-10  1.3841E-09  4.1146E-09  1.1145E-08  2.7228E-08  5.9298E-08
       1.1383E-07  1.9036E-07  2.7429E-07  3.3673E-07  3.4502E-07  2.7823E-07  1.5695E-07  6.8317E-08  2.4510E-08  7.5687E-09
       2.0745E-09  5.1638E-10  1.1886E-10  2.5689E-11  5.2793E-12  1.0372E-12  1.9202E-13  3.3388E-14  5.4536E-15  8.3761E-16
       1.2112E-16  1.6522E-17  2.1311E-18  2.6044E-19  3.0194E-20  3.3258E-21  3.4875E-22  3.4879E-23  3.3305E-24  3.0396E-25
       2.6566E-26  2.2278E-27  1.7946E-28  1.3907E-29  1.0390E-30  7.5001E-32  5.2371E-33  3.5430E-34  2.3276E-35  1.4865E-36
       9.2298E-38  5.5759E-39  3.2802E-40  1.8784E-41  1.0475E-42  5.6958E-44  3.0209E-45  1.5643E-46  7.9248E-48  3.9292E-49
       1.9079E-50  9.0893E-52  4.2505E-53  1.9526E-54  8.8242E-56  3.9231E-57  1.7167E-58  7.3982E-60  3.1431E-61  1.3189E-62
       5.4677E-64  2.2380E-65  9.0395E-67  3.6074E-68  1.4252E-69  5.5718E-71  2.1514E-72  8.2114E-74  3.1052E-75  1.1619E-76
       4.2964E-78  1.5735E-79  5.7047E-81  2.0453E-82  7.2589E-84  2.5492E-85  8.8549E-87  3.0428E-88  1.0341E-89  3.4762E-91
       1.1921E-92
  56   3.2276E-20  1.7557E-19  1.0297E-18  5.8654E-18  3.2226E-17  1.7063E-16  8.6996E-16  4.2636E-15  2.0036E-14  8.9992E-14
       3.8488E-13  1.5610E-12  5.9756E-12  2.1464E-11  7.1851E-11  2.2264E-10  6.3360E-10  1.6417E-09  3.8377E-09  8.0074E-09
       1.4759E-08  2.3788E-08  3.3168E-08  3.9499E-08  3.9224E-08  3.0668E-08  1.7169E-08  7.5044E-09  2.7219E-09  8.5345E-10
       2.3810E-10  6.0362E-11  1.4137E-11  3.1013E-12  6.4399E-13  1.2767E-13  2.4213E-14  4.3379E-15  7.3208E-16  1.1635E-16
       1.7424E-17  2.4627E-18  3.2920E-19  4.1690E-20  5.0069E-21  5.7099E-22  6.1949E-23  6.4053E-24  6.3173E-25  5.9492E-26
       5.3600E-27  4.6292E-28  3.8367E-29  3.0555E-30  2.3439E-31  1.7357E-32  1.2423E-33  8.6069E-35  5.7857E-36  3.7776E-37
       2.3956E-38  1.4768E-39  8.8573E-41  5.1659E-42  2.9313E-43  1.6205E-44  8.7294E-46  4.5869E-47  2.3560E-48  1.1835E-49
       5.8173E-51  2.8031E-52  1.3248E-53  6.1459E-55  2.8025E-56  1.2562E-57  5.5374E-59  2.4020E-60  1.0263E-61  4.3276E-63
       1.8013E-64  7.3961E-66  2.9942E-67  1.1966E-68  4.7302E-70  1.8487E-71  7.1297E-73  2.7157E-74  1.0240E-75  3.8170E-77
       1.4049E-78  5.1170E-80  1.8434E-81  6.5614E-83  2.3099E-84  8.0399E-86  2.7657E-87  9.4036E-89  3.1593E-90  1.0489E-91
       3.5478E-93
  57   6.7603E-21  3.6775E-20  2.1488E-19  1.2150E-18  6.6051E-18  3.4481E-17  1.7277E-16  8.2964E-16  3.8097E-15  1.6676E-14
       6.9316E-14  2.7241E-13  1.0076E-12  3.4900E-12  1.1245E-11  3.3484E-11  9.1459E-11  2.2733E-10  5.0992E-10  1.0223E-09
       1.8141E-09  2.8231E-09  3.8123E-09  4.4031E-09  4.2360E-09  3.2130E-09  1.7792E-09  7.7755E-10  2.8382E-10  8.9972E-11
[...]
       4.5222E-11  4.7827E-11  4.9923E-11  5.1430E-11  5.2289E-11  5.2468E-11  5.1960E-11  5.0788E-11  4.8997E-11  4.6660E-11
       4.3865E-11  4.0711E-11  3.7307E-11  3.3758E-11  3.0167E-11  2.6625E-11  2.3212E-11  1.9991E-11  1.7011E-11  1.4302E-11
       1.1883E-11  9.7572E-12  7.9186E-12  6.3518E-12  5.0356E-12  3.9445E-12  3.0508E-12  2.3261E-12  1.7426E-12  1.2746E-12
       8.9952E-13  5.9955E-13  3.6778E-13  2.0833E-13  1.0875E-13  5.2815E-14  2.4291E-14  1.0782E-14  4.6924E-15  2.0249E-15
       8.7289E-16  3.7753E-16  1.6422E-16  7.1929E-17  3.1738E-17  1.4107E-17  6.3152E-18  2.8464E-18  1.2911E-18  5.8922E-19
       2.7043E-19  1.2479E-19  5.7876E-20  2.6974E-20  1.2631E-20  5.9413E-21  2.8070E-21  1.3319E-21  6.3460E-22  3.0363E-22
       1.4587E-22  7.0363E-23  3.4077E-23  1.6570E-23  8.0884E-24  3.9636E-24  1.9495E-24  9.6233E-25  4.7659E-25  2.3673E-25
       1.1791E-25
  89   9.7946E-15  1.7509E-14  2.9222E-14  4.6514E-14  7.1451E-14  1.0670E-13  1.5566E-13  2.2259E-13  3.1279E-13  4.3271E-13
       5.9010E-13  7.9410E-13  1.0553E-12  1.3857E-12  1.7985E-12  2.3080E-12  2.9288E-12  3.6755E-12  4.5616E-12  5.5984E-12
       6.7940E-12  8.1520E-12  9.6698E-12  1.1338E-11  1.3138E-11  1.5045E-11  1.7022E-11  1.9028E-11  2.1010E-11  2.2915E-11
       2.4684E-11  2.6260E-11  2.7589E-11  2.8623E-11  2.9327E-11  2.9673E-11  2.9650E-11  2.9260E-11  2.8519E-11  2.7455E-11
       2.6110E-11  2.4531E-11  2.2771E-11  2.0886E-11  1.8933E-11  1.6962E-11  1.5022E-11  1.3153E-11  1.1387E-11  9.7486E-12
       8.2546E-12  6.9140E-12  5.7293E-12  4.6972E-12  3.8101E-12  3.0570E-12  2.4244E-12  1.8975E-12  1.4607E-12  1.0989E-12
       7.9858E-13  5.4925E-13  3.4518E-13  1.9644E-13  1.0187E-13  4.8685E-14  2.1918E-14  9.5106E-15  4.0506E-15  1.7145E-15
       7.2662E-16  3.0965E-16  1.3296E-16  5.7573E-17  2.5142E-17  1.1070E-17  4.9121E-18  2.1956E-18  9.8810E-19  4.4751E-19
       2.0388E-19  9.3406E-20  4.3018E-20  1.9912E-20  9.2607E-21  4.3270E-21  2.0308E-21  9.5726E-22  4.5316E-22  2.1542E-22
       1.0283E-22  4.9291E-23  2.3722E-23  1.1463E-23  5.5612E-24  2.7087E-24  1.3244E-24  6.5002E-25  3.2021E-25  1.5833E-25
       7.8617E-26
  90   5.2158E-15  9.3241E-15  1.5564E-14  2.4776E-14  3.8060E-14  5.6837E-14  8.2912E-14  1.1855E-13  1.6655E-13  2.3034E-13
       3.1402E-13  4.2243E-13  5.6117E-13  7.3663E-13  9.5585E-13  1.2264E-12  1.5563E-12  1.9534E-12  2.4253E-12  2.9784E-12
       3.6179E-12  4.3465E-12  5.1641E-12  6.0670E-12  7.0475E-12  8.0933E-12  9.1876E-12  1.0309E-11  1.1433E-11  1.2530E-11
       1.3570E-11  1.4522E-11  1.5357E-11  1.6047E-11  1.6568E-11  1.6903E-11  1.7041E-11  1.6978E-11  1.6717E-11  1.6268E-11
       1.5649E-11  1.4881E-11  1.3991E-11  1.3006E-11  1.1957E-11  1.0873E-11  9.7800E-12  8.7037E-12  7.6650E-12  6.6808E-12
       5.7642E-12  4.9240E-12  4.1652E-12  3.4895E-12  2.8954E-12  2.3788E-12  1.9339E-12  1.5530E-12  1.2277E-12  9.4931E-13
       7.0958E-13  5.0249E-13  3.2541E-13  1.8623E-13  9.5764E-14  4.4880E-14  1.9703E-14  8.3314E-15  3.4650E-15  1.4365E-15
       5.9812E-16  2.5105E-16  1.0639E-16  4.5539E-17  1.9681E-17  8.5832E-18  3.7751E-18  1.6734E-18  7.4709E-19  3.3577E-19
       1.5184E-19  6.9064E-20  3.1584E-20  1.4518E-20  6.7065E-21  3.1126E-21  1.4512E-21  6.7959E-22  3.1964E-22  1.5098E-22
       7.1614E-23  3.4110E-23  1.6314E-23  7.8344E-24  3.7775E-24  1.8288E-24  8.8885E-25  4.3374E-25  2.1252E-25  1.0460E-25
       5.1775E-26
  91   2.7759E-15  4.9630E-15  8.2860E-15  1.3194E-14  2.0274E-14  3.0283E-14  4.4185E-14  6.3186E-14  8.8781E-14  1.2279E-13
       1.6740E-13  2.2520E-13  2.9918E-13  3.9274E-13  5.0969E-13  6.5413E-13  8.3038E-13  1.0428E-12  1.2957E-12  1.5927E-12
       1.9371E-12  2.3309E-12  2.7746E-12  3.2671E-12  3.8053E-12  4.3835E-12  4.9938E-12  5.6258E-12  6.2669E-12  6.9027E-12
       7.5171E-12  8.0935E-12  8.6154E-12  9.0670E-12  9.4342E-12  9.7054E-12  9.8722E-12  9.9295E-12  9.8761E-12  9.7148E-12
       9.4517E-12  9.0964E-12  8.6610E-12  8.1594E-12  7.6071E-12  7.0195E-12  6.4122E-12  5.7995E-12  5.1947E-12  4.6088E-12
       4.0512E-12  3.5289E-12  3.0468E-12  2.6078E-12  2.2128E-12  1.8611E-12  1.5503E-12  1.2768E-12  1.0360E-12  8.2267E-13
       6.3184E-13  4.6002E-13  3.0698E-13  1.7762E-13  9.0352E-14  4.1340E-14  1.7619E-14  7.2349E-15  2.9318E-15  1.1890E-15
       4.8607E-16  2.0090E-16  8.4021E-17  3.5548E-17  1.5204E-17  6.5679E-18  2.8631E-18  1.2585E-18  5.5737E-19  2.4858E-19
       1.1157E-19  5.0380E-20  2.2876E-20  1.0443E-20  4.7910E-21  2.2087E-21  1.0230E-21  4.7596E-22  2.2243E-22  1.0440E-22
       4.9207E-23  2.3292E-23  1.1071E-23  5.2840E-24  2.5323E-24  1.2186E-24  5.8877E-25  2.8566E-25  1.3921E-25  6.8197E-26
       3.3651E-26
  92   1.4768E-15  2.6409E-15  4.4105E-15  7.0258E-15  1.0801E-14  1.6141E-14  2.3561E-14  3.3709E-14  4.7383E-14  6.5561E-14
       8.9414E-14  1.2033E-13  1.5992E-13  2.1003E-13  2.7272E-13  3.5022E-13  4.4491E-13  5.5925E-13  6.9562E-13  8.5626E-13
       1.0431E-12  1.2575E-12  1.5002E-12  1.7710E-12  2.0688E-12  2.3911E-12  2.7343E-12  3.0933E-12  3.4620E-12  3.8329E-12
       4.1978E-12  4.5478E-12  4.8736E-12  5.1664E-12  5.4178E-12  5.6204E-12  5.7683E-12  5.8573E-12  5.8851E-12  5.8514E-12
       5.7579E-12  5.6081E-12  5.4074E-12  5.1622E-12  4.8802E-12  4.5696E-12  4.2388E-12  3.8959E-12  3.5489E-12  3.2047E-12
       2.8696E-12  2.5486E-12  2.2455E-12  1.9633E-12  1.7033E-12  1.4661E-12  1.2509E-12  1.0560E-12  8.7877E-13  7.1601E-13
       5.6444E-13  4.2191E-13  2.8907E-13  1.7093E-13  8.5568E-14  3.8012E-14  1.5644E-14  6.2143E-15  2.4482E-15  9.7030E-16
       3.8931E-16  1.5843E-16  6.5394E-17  2.7350E-17  1.1577E-17  4.9533E-18  2.1401E-18  9.3273E-19  4.0976E-19  1.8132E-19
       8.0774E-20  3.6206E-20  1.6323E-20  7.3995E-21  3.3717E-21  1.5440E-21  7.1046E-22  3.2842E-22  1.5251E-22  7.1130E-23
       3.3320E-23  1.5675E-23  7.4052E-24  3.5131E-24  1.6736E-24  8.0056E-25  3.8455E-25  1.8552E-25  8.9927E-26  4.3849E-26
       2.1569E-26
  93   7.8552E-16  1.4050E-15  2.3475E-15  3.7417E-15  5.7559E-15  8.6076E-15  1.2574E-14  1.8002E-14  2.5323E-14  3.5063E-14
       4.7855E-14  6.4451E-14  8.5724E-14  1.1268E-13  1.4644E-13  1.8824E-13  2.3942E-13  3.0134E-13  3.7537E-13  4.6285E-13
       5.6494E-13  6.8258E-13  8.1639E-13  9.6656E-13  1.1327E-12  1.3140E-12  1.5086E-12  1.7144E-12  1.9281E-12  2.1462E-12
       2.3644E-12  2.5778E-12  2.7815E-12  2.9705E-12  3.1398E-12  3.2849E-12  3.4019E-12  3.4877E-12  3.5401E-12  3.5579E-12
       3.5411E-12  3.4906E-12  3.4083E-12  3.2972E-12  3.1608E-12  3.0032E-12  2.8288E-12  2.6420E-12  2.4475E-12  2.2495E-12
       2.0517E-12  1.8577E-12  1.6702E-12  1.4914E-12  1.3227E-12  1.1647E-12  1.0173E-12  8.7972E-13  7.5023E-13  6.2659E-13
       5.0642E-13  3.8811E-13  2.7255E-13  1.6508E-13  8.1251E-14  3.4836E-14  1.3758E-14  5.2654E-15  2.0126E-15  7.7898E-16
       3.0673E-16  1.2293E-16  5.0082E-17  2.0708E-17  8.6749E-18  3.6764E-18  1.5742E-18  6.8024E-19  2.9640E-19  1.3013E-19
       5.7528E-20  2.5596E-20  1.1457E-20  5.1576E-21  2.3342E-21  1.0619E-21  4.8542E-22  2.2297E-22  1.0289E-22  4.7694E-23
       2.2206E-23  1.0384E-23  4.8767E-24  2.2999E-24  1.0893E-24  5.1805E-25  2.4743E-25  1.1870E-25  5.7237E-26  2.7781E-26
       1.3623E-26
  94   4.1780E-16  7.4752E-16  1.2497E-15  1.9932E-15  3.0688E-15  4.5934E-15  6.7163E-15  9.6255E-15  1.3554E-14  1.8787E-14
       2.5668E-14  3.4608E-14  4.6085E-14  6.0649E-14  7.8924E-14  1.0160E-13  1.2942E-13  1.6316E-13  2.0364E-13  2.5162E-13
       3.0783E-13  3.7291E-13  4.4730E-13  5.3129E-13  6.2486E-13  7.2769E-13  8.3912E-13  9.5809E-13  1.0831E-12  1.2125E-12
       1.3438E-12  1.4748E-12  1.6026E-12  1.7245E-12  1.8376E-12  1.9392E-12  2.0268E-12  2.0982E-12  2.1518E-12  2.1863E-12
       2.2010E-12  2.1960E-12  2.1716E-12  2.1291E-12  2.0697E-12  1.9956E-12  1.9088E-12  1.8118E-12  1.7069E-12  1.5967E-12
       1.4835E-12  1.3694E-12  1.2562E-12  1.1454E-12  1.0380E-12  9.3470E-13  8.3535E-13  7.3938E-13  6.4554E-13  5.5202E-13
       4.5681E-13  3.5845E-13  2.5763E-13  1.5967E-13  7.7415E-14  3.1773E-14  1.1949E-14  4.3869E-15  1.6242E-15  6.1377E-16
       2.3724E-16  9.3661E-17  3.7675E-17  1.5403E-17  6.3866E-18  2.6808E-18  1.1375E-18  4.8731E-19  2.1058E-19  9.1718E-20
       4.0237E-20  1.7771E-20  7.8977E-21  3.5306E-21  1.5871E-21  7.1727E-22  3.2581E-22  1.4872E-22  6.8211E-23  3.1430E-23
       1.4548E-23  6.7634E-24  3.1581E-24  1.4810E-24  6.9747E-25  3.2987E-25  1.5668E-25  7.4764E-26  3.5866E-26  1.7331E-26
       8.4727E-27
  95   2.2227E-16  3.9783E-16  6.6551E-16  1.0624E-15  1.6373E-15  2.4535E-15  3.5918E-15  5.1541E-15  7.2672E-15  1.0087E-14
       1.3801E-14  1.8635E-14  2.4853E-14  3.2761E-14  4.2705E-14  5.5074E-14  7.0290E-14  8.8806E-14  1.1109E-13  1.3761E-13
       1.6882E-13  2.0512E-13  2.4685E-13  2.9425E-13  3.4744E-13  4.0636E-13  4.7077E-13  5.4025E-13  6.1412E-13  6.9152E-13
       7.7135E-13  8.5233E-13  9.3302E-13  1.0119E-12  1.0872E-12  1.1576E-12  1.2213E-12  1.2769E-12  1.3234E-12  1.3595E-12
       1.3848E-12  1.3987E-12  1.4011E-12  1.3923E-12  1.3729E-12  1.3435E-12  1.3052E-12  1.2592E-12  1.2067E-12  1.1490E-12
       1.0875E-12  1.0233E-12  9.5770E-13  8.9147E-13  8.2531E-13  7.5950E-13  6.9395E-13  6.2805E-13  5.6067E-13  4.9019E-13
       4.1471E-13  3.3267E-13  2.4432E-13  1.5431E-13  7.4355E-14  2.8796E-14  1.0210E-14  3.5795E-15  1.2825E-15  4.7333E-16
       1.7971E-16  6.9929E-17  2.7781E-17  1.1232E-17  4.6096E-18  1.9163E-18  8.0570E-19  3.4218E-19  1.4664E-19  6.3360E-20
       2.7584E-20  1.2093E-20  5.3363E-21  2.3693E-21  1.0581E-21  4.7512E-22  2.1448E-22  9.7316E-23  4.4372E-23  2.0328E-23
       9.3564E-24  4.3259E-24  2.0089E-24  9.3701E-25  4.3892E-25  2.0648E-25  9.7564E-26  4.6315E-26  2.2110E-26  1.0638E-26
       5.1854E-27
  96   1.1834E-16  2.1189E-16  3.5474E-16  5.6688E-16  8.7468E-16  1.3125E-15  1.9241E-15  2.7653E-15  3.9055E-15  5.4299E-15
       7.4427E-15  1.0068E-14  1.3453E-14  1.7770E-14  2.3213E-14  3.0003E-14  3.8385E-14  4.8620E-14  6.0986E-14  7.5768E-14
       9.3246E-14  1.1369E-13  1.3733E-13  1.6436E-13  1.9491E-13  2.2904E-13  2.6670E-13  3.0773E-13  3.5187E-13  3.9872E-13
       4.4776E-13  4.9834E-13  5.4973E-13  6.0107E-13  6.5148E-13  7.0003E-13  7.4577E-13  7.8783E-13  8.2536E-13  8.5766E-13
       8.8412E-13  9.0431E-13  9.1794E-13  9.2492E-13  9.2531E-13  9.1934E-13  9.0739E-13  8.8995E-13  8.6762E-13  8.4105E-13
       8.1091E-13  7.7788E-13  7.4253E-13  7.0536E-13  6.6666E-13  6.2649E-13  5.8458E-13  5.4025E-13  4.9237E-13  4.3936E-13
       3.7930E-13  3.1050E-13  2.3263E-13  1.4932E-13  7.1708E-14  2.5795E-14  8.5282E-15  2.8456E-15  9.8684E-16  3.5613E-16
       1.3295E-16  5.1021E-17  2.0026E-17  8.0077E-18  3.2527E-18  1.3392E-18  5.5795E-19  2.3490E-19  9.9836E-20  4.2798E-20
       1.8492E-20  8.0488E-21  3.5273E-21  1.5558E-21  6.9036E-22  3.0812E-22  1.3827E-22  6.2382E-23  2.8286E-23  1.2889E-23
       5.9011E-24  2.7143E-24  1.2541E-24  5.8198E-25  2.7126E-25  1.2698E-25  5.9702E-26  2.8205E-26  1.3403E-26  6.4223E-27
       3.1219E-27
  97   6.3140E-17  1.1312E-16  1.8954E-16  3.0324E-16  4.6855E-16  7.0415E-16  1.0341E-15  1.4889E-15  2.1069E-15  2.9354E-15
       4.0321E-15  5.4667E-15  7.3220E-15  9.6949E-15  1.2697E-14  1.6457E-14  2.1114E-14  2.6826E-14  3.3758E-14  4.2085E-14
       5.1985E-14  6.3632E-14  7.7189E-14  9.2803E-14  1.1059E-13  1.3063E-13  1.5296E-13  1.7755E-13  2.0432E-13  2.3310E-13
       2.6367E-13  2.9573E-13  3.2890E-13  3.6275E-13  3.9680E-13  4.3052E-13  4.6337E-13  4.9480E-13  5.2429E-13  5.5133E-13
       5.7548E-13  5.9636E-13  6.1369E-13  6.2725E-13  6.3694E-13  6.4273E-13  6.4469E-13  6.4298E-13  6.3781E-13  6.2945E-13
       6.1819E-13  6.0432E-13  5.8810E-13  5.6969E-13  5.4916E-13  5.2633E-13  5.0079E-13  4.7176E-13  4.3806E-13  3.9807E-13
       3.4989E-13  2.9166E-13  2.2254E-13  1.4496E-13  6.9195E-14  2.2660E-14  6.9040E-15  2.1892E-15  7.3634E-16  2.6036E-16
       9.5690E-17  3.6242E-17  1.4058E-17  5.5610E-18  2.2361E-18  9.1195E-19  3.7654E-19  1.5719E-19  6.6277E-20  2.8197E-20
       1.2096E-20  5.2293E-21  2.2769E-21  9.9811E-22  4.4031E-22  1.9541E-22  8.7222E-23  3.9145E-23  1.7660E-23  8.0079E-24
       3.6488E-24  1.6704E-24  7.6821E-25  3.5488E-25  1.6465E-25  7.6727E-26  3.5913E-26  1.6892E-26  7.9926E-27  3.8155E-27
       1.8499E-27
  98   3.3920E-17  6.0803E-17  1.0199E-16  1.6339E-16  2.5287E-16  3.8072E-16  5.6026E-16  8.0844E-16  1.1467E-15  1.6015E-15
       2.2055E-15  2.9984E-15  4.0274E-15  5.3486E-15  7.0269E-15  9.1372E-15  1.1764E-14  1.5000E-14  1.8950E-14  2.3720E-14
       2.9427E-14  3.6185E-14  4.4109E-14  5.3307E-14  6.3876E-14  7.5895E-14  8.9423E-14  1.0449E-13  1.2109E-13  1.3919E-13
       1.5869E-13  1.7948E-13  2.0139E-13  2.2420E-13  2.4767E-13  2.7152E-13  2.9543E-13  3.1910E-13  3.4218E-13  3.6435E-13
       3.8530E-13  4.0476E-13  4.2245E-13  4.3818E-13  4.5178E-13  4.6312E-13  4.7215E-13  4.7884E-13  4.8321E-13  4.8531E-13
       4.8521E-13  4.8298E-13  4.7866E-13  4.7221E-13  4.6350E-13  4.5221E-13  4.3780E-13  4.1939E-13  3.9576E-13  3.6525E-13
       3.2596E-13  2.7593E-13  2.1395E-13  1.4126E-13  6.6696E-14  1.9328E-14  5.3567E-15  1.6171E-15  5.2956E-16  1.8393E-16
       6.6653E-17  2.4936E-17  9.5656E-18  3.7452E-18  1.4918E-18  6.0306E-19  2.4697E-19  1.0232E-19  4.2834E-20  1.8102E-20
       7.7172E-21  3.3165E-21  1.4360E-21  6.2617E-22  2.7484E-22  1.2139E-22  5.3932E-23  2.4097E-23  1.0824E-23  4.8876E-24
       2.2179E-24  1.0112E-24  4.6320E-25  2.1312E-25  9.8490E-26  4.5713E-26  2.1312E-26  9.9842E-27  4.7062E-27  2.2390E-27
       1.0830E-27
  99   1.8629E-17  3.3417E-17  5.6120E-17  9.0049E-17  1.3963E-16  2.1069E-16  3.1078E-16  4.4963E-16  6.3952E-16  8.9583E-16
       1.2376E-15  1.6880E-15  2.2752E-15  3.0324E-15  3.9990E-15  5.2205E-15  6.7491E-15  8.6435E-15  1.0969E-14  1.3797E-14
       1.7203E-14  2.1267E-14  2.6070E-14  3.1695E-14  3.8218E-14  4.5713E-14  5.4240E-14  6.3849E-14  7.4574E-14  8.6425E-14
       9.9393E-14  1.1344E-13  1.2851E-13  1.4451E-13  1.6132E-13  1.7880E-13  1.9679E-13  2.1509E-13  2.3353E-13  2.5187E-13
       2.6993E-13  2.8748E-13  3.0433E-13  3.2030E-13  3.3521E-13  3.4892E-13  3.6132E-13  3.7230E-13  3.8178E-13  3.8971E-13
       3.9602E-13  4.0066E-13  4.0353E-13  4.0446E-13  4.0320E-13  3.9934E-13  3.9222E-13  3.8090E-13  3.6411E-13  3.4017E-13
       3.0717E-13  2.6316E-13  2.0675E-13  1.3817E-13  6.4060E-14  1.5798E-14  3.9297E-15  1.1363E-15  3.6429E-16  1.2471E-16
       4.4663E-17  1.6540E-17  6.2882E-18  2.4423E-18  9.6585E-19  3.8791E-19  1.5793E-19  6.5073E-20  2.7105E-20  1.1402E-20
       4.8395E-21  2.0712E-21  8.9333E-22  3.8807E-22  1.6972E-22  7.4702E-23  3.3077E-23  1.4730E-23  6.5956E-24  2.9686E-24
       1.3428E-24  6.1031E-25  2.7867E-25  1.2781E-25  5.8872E-26  2.7235E-26  1.2654E-26  5.9084E-27  2.7759E-27  1.3168E-27
       6.3563E-28
 100   1.0972E-17  1.9696E-17  3.3120E-17  5.3237E-17  8.2725E-17  1.2513E-16  1.8508E-16  2.6855E-16  3.8317E-16  5.3855E-16
       7.4665E-16  1.0222E-15  1.3831E-15  1.8510E-15  2.4515E-15  3.2145E-15  4.1751E-15  5.3730E-15  6.8533E-15  8.6658E-15
       1.0865E-14  1.3510E-14  1.6663E-14  2.0388E-14  2.4748E-14  2.9809E-14  3.5630E-14  4.2265E-14  4.9761E-14  5.8155E-14
       6.7468E-14  7.7709E-14  8.8868E-14  1.0092E-13  1.1381E-13  1.2748E-13  1.4184E-13  1.5679E-13  1.7220E-13  1.8795E-13
       2.0388E-13  2.1984E-13  2.3568E-13  2.5124E-13  2.6638E-13  2.8093E-13  2.9477E-13  3.0777E-13  3.1981E-13  3.3076E-13
       3.4051E-13  3.4892E-13  3.5584E-13  3.6101E-13  3.6411E-13  3.6466E-13  3.6194E-13  3.5497E-13  3.4242E-13  3.2261E-13
       2.9360E-13  2.5350E-13  2.0094E-13  1.3554E-13  6.0896E-14  1.2262E-14  2.6888E-15  7.5326E-16  2.3891E-16  8.1326E-17
       2.9018E-17  1.0717E-17  4.0659E-18  1.5767E-18  6.2267E-19  2.4980E-19  1.0159E-19  4.1818E-20  1.7401E-20  7.3118E-21
       3.1001E-21  1.3252E-21  5.7084E-22  2.4765E-22  1.0816E-22  4.7533E-23  2.1014E-23  9.3427E-24  4.1760E-24  1.8762E-24
       8.4706E-25  3.8423E-25  1.7507E-25  8.0119E-26  3.6820E-26  1.6992E-26  7.8752E-27  3.6674E-27  1.7186E-27  8.1328E-28
       3.9195E-28
 101   7.7969E-18  1.4006E-17  2.3578E-17  3.7956E-17  5.9083E-17  8.9547E-17  1.3274E-16  1.9308E-16  2.7621E-16  3.8928E-16
       5.4126E-16  7.4325E-16  1.0089E-15  1.3546E-15  1.8001E-15  2.3689E-15  3.0881E-15  3.9894E-15  5.1087E-15  6.4865E-15
       8.1678E-15  1.0202E-14  1.2641E-14  1.5541E-14  1.8960E-14  2.2956E-14  2.7587E-14  3.2909E-14  3.8971E-14  4.5819E-14
       5.3487E-14  6.2002E-14  7.1375E-14  8.1605E-14  9.2674E-14  1.0455E-13  1.1718E-13  1.3049E-13  1.4441E-13  1.5882E-13
       1.7363E-13  1.8870E-13  2.0391E-13  2.1910E-13  2.3415E-13  2.4891E-13  2.6325E-13  2.7701E-13  2.9007E-13  3.0228E-13
       3.1351E-13  3.2358E-13  3.3229E-13  3.3938E-13  3.4446E-13  3.4701E-13  3.4629E-13  3.4125E-13  3.3052E-13  3.1235E-13
       2.8477E-13  2.4586E-13  1.9441E-13  1.3052E-13  5.6632E-14  1.0626E-14  2.1832E-15  5.9149E-16  1.8326E-16  6.1449E-17
       2.1728E-17  7.9840E-18  3.0213E-18  1.1704E-18  4.6215E-19  1.8545E-19  7.5459E-20  3.1077E-20  1.2937E-20  5.4381E-21
       2.3061E-21  9.8584E-22  4.2460E-22  1.8416E-22  8.0393E-23  3.5312E-23  1.5601E-23  6.9306E-24  3.0951E-24  1.3891E-24
       6.2647E-25  2.8382E-25  1.2915E-25  5.9021E-26  2.7083E-26  1.2478E-26  5.7729E-27  2.6834E-27  1.2551E-27  5.9294E-28
       2.8541E-28

 CONCENTRATION WILL BE SAVED ON UNIT 1030 AT END OF TIME STEP  250, STRESS PERIOD    2


  MASS BUDGET FOR ENTIRE MODEL AT END OF TIME STEP  250, STRESS PERIOD   2
  ---------------------------------------------------------------------------------------------------

     CUMULATIVE MASS      M       RATES FOR THIS TIME STEP      M/T          PACKAGE NAME    
     ------------------                 ------------------------                     ----------------

           IN:                                      IN:
           ---                                      ---
     STORAGE-AQUEOUS =         114.1563       STORAGE-AQUEOUS =       1.6061E-03     MST                              
                 WEL =           0.0000                   WEL =           0.0000     SSM_WEL-1                        
                 CHD =           0.0000                   CHD =           0.0000     SSM_CHD-1                        
                 CNC =   103550662.6792                   CNC =       34489.5080     CNC                              

            TOTAL IN =   103550776.8355              TOTAL IN =       34489.5096

          OUT:                                     OUT:
          ----                                     ----
     STORAGE-AQUEOUS =      162990.2098       STORAGE-AQUEOUS =       5.5820E-03     MST                              
                 WEL =      258193.5590                   WEL =          86.5885     SSM_WEL-1                        
                 CHD =           0.0000                   CHD =           0.0000     SSM_CHD-1                        
                 CNC =   103129592.9367                   CNC =       34402.9154     CNC                              

           TOTAL OUT =   103550776.7056             TOTAL OUT =       34489.5094

            IN - OUT =           0.1299              IN - OUT =       1.3675E-04

 PERCENT DISCREPANCY =           0.00     PERCENT DISCREPANCY =           0.00




         TIME SUMMARY AT END OF TIME STEP  250 IN STRESS PERIOD    2
                    SECONDS     MINUTES      HOURS       DAYS        YEARS
                    -----------------------------------------------------------
   TIME STEP LENGTH 1.03680E+06  17280.      288.00      12.000     3.28542E-02
 STRESS PERIOD TIME 2.59200E+08 4.32000E+06  72000.      3000.0      8.2136    
         TOTAL TIME 2.59286E+08 4.32144E+06  72024.      3001.0      8.2163    


end timestep

