                                   MODFLOW 6
                U.S. GEOLOGICAL SURVEY MODULAR HYDROLOGIC MODEL
                             TRANSPORT MODEL (GWT)
                            VERSION 6.6.2 05/12/2025

   MODFLOW 6 compiled May 12 2025 12:42:18 with Intel(R) Fortran Intel(R) 64
   Compiler Classic for applications running on Intel(R) 64, Version 2021.7.0
                             Build 20220726_000000

This software has been approved for release by the U.S. Geological 
Survey (USGS). Although the software has been subjected to rigorous 
review, the USGS reserves the right to update the software as needed 
pursuant to further analysis and review. No warranty, expressed or 
implied, is made by the USGS or the U.S. Government as to the 
functionality of the software and related material nor shall the 
fact of release constitute any such warranty. Furthermore, the 
software is released on condition that neither the USGS nor the U.S. 
Government shall be held liable for any damages resulting from its 
authorized or unauthorized use. Also refer to the USGS Water 
Resources Software User Rights Notice for complete use, copyright, 
and distribution information.


As a work of the United States Government, this USGS product is 
in the public domain within the United States. You can copy, 
modify, distribute, and perform the work, even for commercial 
purposes, all without asking permission. Additionally, USGS 
waives copyright and related rights in the work worldwide 
through CC0 1.0 Universal Public Domain Dedication 
(https://creativecommons.org/publicdomain/zero/1.0/).

The following GNU Lesser General Public License (LGPL) libraries
are used in this USGS product:

    SPARSKIT version 2.0
      ilut, luson, and qsplit 
      (https://www-users.cse.umn.edu/~saad/software/SPARSKIT/)

    RCM - Reverse Cuthill McKee Ordering
      (https://people.math.sc.edu/Burkardt/f_src/rcm/rcm.html)

    BLAS - Basic Linear Algebra Subprograms Level 1
      (https://people.math.sc.edu/Burkardt/f_src/blas1_d/blas1_d.html)

    SPARSEKIT - Sparse Matrix Utility Package
      amux, dperm, dvperm, rperm, and cperm
      (https://people.sc.fsu.edu/~jburkardt/f77_src/sparsekit/sparsekit.html)

The following BSD-3 License libraries are used in this USGS product:

    Modern Fortran DAG Library
      Copyright (c) 2018, Jacob Williams
      All rights reserved.
      (https://github.com/jacobwilliams/daglib)

MODFLOW 6 compiler options: /Isrc\libmf6core.a.p /Isrc /I..\src
/Isrc\libmf6_external.a.p /MT /nologo /warn:general /warn:truncated_source
/stand:f18 /O2 /fpe:0 /heap-arrays:0 /traceback /fpp /Qdiag-disable:7416
/Qdiag-disable:7025 /Qdiag-disable:5268 /Qdiag-disable:10448
/Fdsrc\libmf6core.a.p\Utilities_compilerversion.F90.pdb
/module:src\libmf6core.a.p
/Fosrc/libmf6core.a.p/Utilities_compilerversion.F90.obj /c

System command used to initiate simulation:
C:\Users\lucialabarca\mf6.6.2_win64\bin\mf6.exe

MODFLOW was compiled using uniform precision.

Real Variables
  KIND: 8
  TINY (smallest non-zero value):    2.225074-308
  HUGE (largest value):    1.797693+308
  PRECISION: 15
  SIZE IN BITS: 64

Integer Variables
  KIND: 4
  HUGE (largest value): 2147483647
  SIZE IN BITS: 32

Long Integer Variables
  KIND: 8
  HUGE (largest value): 9223372036854775807
  SIZE IN BITS: 64

Logical Variables
  KIND: 4
  SIZE IN BITS: 32
 
 NAMEFILE OPTIONS:
 END NAMEFILE OPTIONS:

 DIS -- STRUCTURED GRID DISCRETIZATION PACKAGE, VERSION 2 : 3/27/2014 - INPUT READ FROM MEMPATH: __INPUT__/GWT_PUMPTREATNW/DIS                     


 DSP-- DISPERSION PACKAGE, VERSION 1, 1/24/2018 INPUT READ FROM MEMPATH: __INPUT__/GWT_PUMPTREATNW/DSP                     


 Setting Discretization Options
 End Setting Discretization Options

 Setting Discretization Dimensions
    NLAY = 1
    NROW = 101
    NCOL = 101
 End Setting Discretization Dimensions

 Setting Discretization Griddata
    DELR set from input file
    DELC set from input file
    TOP set from input file
    BOTM set from input file
 End Setting Discretization Griddata


 FMI -- FLOW MODEL INTERFACE,' VERSION 2, 8/17/2023
  FLOWS PROVIDED BY A GWF MODEL IN THIS SIMULATION

 ADV-- ADVECTION PACKAGE, VERSION 1, 8/25/2017 INPUT READ FROM UNIT 1014


 # File generated by Flopy version 3.9.3 on 07/17/2025 at 18:56:56.
 PROCESSING ADVECTION OPTIONS
    ADVECTION WEIGHTING SCHEME HAS BEEN SET TO: UPSTREAM
 END OF ADVECTION OPTIONS
 Setting DSP Options
    XT3D formulation [0=INACTIVE, 1=ACTIVE, 3=ACTIVE RHS] set to: 1
 End Setting DSP Options

 Setting DSP Griddata
    ALH set from input file
    ATH1 set from input file
 End Setting DSP Griddata


 CNC   -- CNC PACKAGE, VERSION 8, 2/22/2014 INPUT READ FROM MEMPATH: __INPUT__/GWT_PUMPTREATNW/CNC                     

 PROCESSING CNC BASE OPTIONS
 END OF CNC BASE OPTIONS

 PROCESSING CNC BASE DIMENSIONS
    MAXBOUND =       6
 END OF CNC BASE DIMENSIONS
    STRT set from input file

 MST -- MOBILE STORAGE AND TRANSFER PACKAGE, VERSION 1, 7/29/2020 INPUT READ FROM UNIT 1013


 # File generated by Flopy version 3.9.3 on 07/17/2025 at 18:56:56.
 PROCESSING MOBILE STORAGE AND TRANSFER OPTIONS
 END OF MOBILE STORAGE AND TRANSFER OPTIONS
 PROCESSING GRIDDATA

   MOBILE DOMAIN POROSITY =  0.2000000    
 END PROCESSING GRIDDATA

 SSM -- SOURCE-SINK MIXING PACKAGE, VERSION 1, 8/25/2017 INPUT READ FROM UNIT 1016


 # File generated by Flopy version 3.9.3 on 07/17/2025 at 18:56:56.
 PROCESSING SSM OPTIONS
 END OF SSM OPTIONS
 PROCESSING SOURCES
 AUX SOURCE DETECTED.
    USING AUX COLUMN 1 IN PACKAGE CHD-1
 END PROCESSING SOURCES
 OPTIONAL FILEINPUT BLOCK NOT FOUND.  CONTINUING.
      THE LAST TIME STEP WILL BE PRINTED
      THE LAST TIME STEP WILL BE PRINTED
 # File generated by Flopy version 3.9.3 on 07/17/2025 at 18:56:56.

 PROCESSING OC OPTIONS

    BUDGET INFORMATION WILL BE WRITTEN TO:
      UNIT NUMBER: 1027
      FILE NAME: gwt_pumptreatnw.cbc

 OPENED gwt_pumptreatnw.cbc
 FILE TYPE:DATA(BINARY)   UNIT 1027   STATUS:REPLACE             
 FORMAT:UNFORMATTED            ACCESS:STREAM              
 ACTION:READWRITE           

    CONCENTRATION INFORMATION WILL BE WRITTEN TO:
      UNIT NUMBER: 1028
      FILE NAME: gwt_pumptreatnw.ucn

 OPENED gwt_pumptreatnw.ucn
 FILE TYPE:DATA(BINARY)   UNIT 1028   STATUS:REPLACE             
 FORMAT:UNFORMATTED            ACCESS:STREAM              
 ACTION:READWRITE           

 END OF OC OPTIONS

start timestep kper="1" kstp="1" mode="normal"


 BEGIN READING OUTPUT CONTROL FOR STRESS PERIOD 1
      THE LAST TIME STEP WILL BE SAVED
      THE LAST TIME STEP WILL BE PRINTED

 END READING OUTPUT CONTROL FOR STRESS PERIOD 1

 XT3D is active.


1
  CONCENTRATION IN LAYER   1 AT END OF TIME STEP   1 IN STRESS PERIOD    1
  ---------------------------------------------------------------------------

 ........................................................................................................................................................................................................................................................................................................................................................................................................................................................................................................................................................................................................................................................................................................................................................................................................................................................................................................................................................................................................................................
   1   4.6069E-83  8.0539E-82  1.4458E-80  2.5217E-79  4.2419E-78  6.8399E-77  1.0511E-75  1.5358E-74  2.1461E-73  2.8623E-72
       3.6341E-71  4.3751E-70  4.9639E-69  5.2601E-68  5.1800E-67  4.7085E-66  3.8805E-65  2.8289E-64  1.7688E-63  9.1293E-63
       3.7044E-62  1.1053E-61  2.1669E-61  2.4414E-61  2.3275E-61  2.4640E-61  2.1268E-61  1.3698E-61  6.8393E-62  2.7756E-62
       9.4998E-63  2.8154E-63  7.3316E-64  1.6887E-64  3.4499E-65  6.2731E-66  1.0217E-66  1.4999E-67  1.9934E-68  2.4106E-69
       2.6673E-70  2.7130E-71  2.5462E-72  2.2106E-73  1.7857E-74  1.3532E-75  9.7134E-77  6.6476E-78  4.3658E-79  2.7666E-80
       1.6975E-81  1.0107E-82  5.8625E-84  3.3287E-85  1.8583E-86  1.0231E-87  5.5629E-89  2.9877E-90  1.5855E-91  8.3234E-93
       4.3288E-94  2.2334E-95  1.1440E-96  5.8208E-98  2.9434E-99  1.4799-100  7.3989-102  3.6774-103  1.8175-104  8.9449-106
       4.3904-107  2.1494-108  1.0480-109  5.0832-111  2.4556-112  1.1849-113  5.7143-115  2.7487-116  1.3201-117  6.3619-119
       3.0854-120  1.4985-121  7.6008-123  3.8459-124  1.8535-125  9.9640-127  5.0668-128  2.2916-129  1.2455-130  5.9036-132
       2.4192-133  1.0217-134  4.8307-136  2.3551-137  1.1345-138  5.3227-140  2.4877-141  1.1294-142  5.1012-144  2.3847-145
       1.1140-146
   2   2.4189E-81  4.3184E-80  7.8830E-79  1.3949E-77  2.3783E-76  3.8891E-75  6.0807E-74  9.0957E-73  1.2998E-71  1.7716E-70
       2.2975E-69  2.8250E-68  3.2758E-67  3.5548E-66  3.5910E-65  3.3466E-64  2.8260E-63  2.1098E-62  1.3505E-61  7.1336E-61
       2.9632E-60  9.0193E-60  1.7880E-59  1.9867E-59  1.8761E-59  2.0092E-59  1.7266E-59  1.0939E-59  5.3456E-60  2.1193E-60
       7.0840E-61  2.0503E-61  5.2090E-62  1.1690E-62  2.3257E-63  4.1182E-64  6.5295E-65  9.3228E-66  1.2047E-66  1.4176E-67
       1.5269E-68  1.5115E-69  1.3794E-70  1.1657E-71  9.1835E-73  6.8014E-74  4.7794E-75  3.2108E-76  2.0747E-77  1.2952E-78
       7.8354E-80  4.6085E-81  2.6463E-82  1.4901E-83  8.2594E-85  4.5173E-86  2.4403E-87  1.3026E-88  6.8746E-90  3.5918E-91
       1.8602E-92  9.5595E-94  4.8776E-95  2.4726E-96  1.2461E-97  6.2452E-99  3.1121-100  1.5417-101  7.5983-103  3.7315-104
       1.8280-105  8.9274-107  4.3389-108  2.0984-109  1.0124-110  4.8834-112  2.3527-113  1.1285-114  5.4053-116  2.5965-117
       1.2623-118  6.1947-120  3.0431-121  1.5401-122  7.8894-124  3.7789-125  1.8633-126  8.9480-128  3.9870-129  1.9550-130
       8.8994-132  4.0316-133  1.9196-134  9.0133-136  4.3103-137  2.0350-138  9.4659-140  4.3350-141  1.9821-142  8.9490-144
       4.2581-145
   3   1.2701E-79  2.3107E-78  4.2899E-77  7.7137E-76  1.3357E-74  2.2225E-73  3.5458E-72  5.4140E-71  7.9001E-70  1.0999E-68
       1.4580E-67  1.8335E-66  2.1760E-65  2.4189E-64  2.5051E-63  2.3937E-62  2.0725E-61  1.5863E-60  1.0409E-59  5.6333E-59
       2.3958E-58  7.4434E-58  1.4937E-57  1.6359E-57  1.5302E-57  1.6596E-57  1.4189E-57  8.8376E-58  4.2254E-58  1.6359E-58
       5.3372E-59  1.5069E-59  3.7327E-60  8.1615E-61  1.5811E-61  2.7251E-62  4.2036E-63  5.8364E-64  7.3340E-65  8.3946E-66
       8.7957E-67  8.4675E-68  7.5164E-69  6.1857E-70  4.7545E-71  3.4436E-72  2.3717E-73  1.5652E-74  9.9545E-76  6.1250E-77
       3.6577E-78  2.1274E-79  1.2102E-80  6.7609E-82  3.7221E-83  2.0230E-84  1.0863E-85  5.7665E-87  3.0283E-88  1.5753E-89
       8.1261E-91  4.1601E-92  2.1150E-93  1.0686E-94  5.3691E-96  2.6831E-97  1.3330E-98  6.5840-100  3.2370-101  1.5869-102
       7.7606-104  3.7811-105  1.8327-106  8.8455-108  4.2632-109  2.0546-110  9.8835-112  4.7353-113  2.2641-114  1.0930-115
       5.3136-117  2.5885-118  1.2906-119  6.3375-121  3.0936-122  1.5946-123  7.5552-125  3.4543-126  1.6529-127  7.5140-129
       3.5328-130  1.6504-131  7.7248-133  3.7234-134  1.7555-135  8.3549-137  3.8559-138  1.7460-139  7.9357-141  3.6238-142
       1.7217-143
   4   6.5717E-78  1.2179E-76  2.3002E-75  4.2082E-74  7.4264E-73  1.2600E-71  2.0503E-70  3.1945E-69  4.7590E-68  6.7690E-67
       9.1729E-66  1.1803E-64  1.4345E-63  1.6347E-62  1.7361E-61  1.7018E-60  1.5118E-59  1.1873E-58  7.9936E-58  4.4379E-57
       1.9341E-56  6.1401E-56  1.2486E-55  1.3466E-55  1.2473E-55  1.3720E-55  1.1661E-55  7.1325E-56  3.3331E-56  1.2590E-56
       4.0058E-57  1.1024E-57  2.6601E-58  5.6628E-59  1.0675E-59  1.7897E-60  2.6837E-61  3.6212E-62  4.4232E-63  4.9208E-64
       5.0115E-65  4.6887E-66  4.0478E-67  3.2445E-68  2.4340E-69  1.7248E-70  1.1650E-71  7.5568E-73  4.7322E-74  2.8717E-75
       1.6941E-76  9.7505E-78  5.4977E-79  3.0485E-80  1.6671E-81  9.0054E-83  4.8079E-84  2.5386E-85  1.3268E-86  6.8725E-88
       3.5310E-89  1.8007E-90  9.1220E-92  4.5941E-93  2.3015E-94  1.1467E-95  5.6793E-97  2.7972E-98  1.3722E-99  6.7154-101
       3.2778-102  1.5929-103  7.7017-105  3.7121-106  1.7880-107  8.6034-109  4.1247-110  1.9723-111  9.4621-113  4.5640-114
       2.2177-115  1.1013-116  5.3212-118  2.6228-119  1.2833-120  5.9685-122  2.9810-123  1.4090-124  6.4848-126  3.0875-127
       1.4557-128  6.7799-130  3.2303-131  1.5263-132  7.2996-134  3.3984-135  1.5649-136  7.0861-138  3.2136-139  1.4640-140
       7.0008-142
   5   3.3535E-76  6.3331E-75  1.2185E-73  2.2721E-72  4.0883E-71  7.0742E-70  1.1744E-68  1.8675E-67  2.8410E-66  4.1292E-65
       5.7225E-64  7.5368E-63  9.3851E-62  1.0967E-60  1.1951E-59  1.2026E-58  1.0968E-57  8.8455E-57  6.1161E-56  3.4868E-55
       1.5588E-54  5.0628E-54  1.0444E-53  1.1081E-53  1.0161E-53  1.1352E-53  9.5834E-54  5.7496E-54  2.6232E-54  9.6581E-55
       2.9941E-55  8.0245E-56  1.8847E-56  3.9034E-57  7.1558E-58  1.1660E-58  1.6984E-59  2.2256E-60  2.6406E-61  2.8536E-62
       2.8222E-63  2.5651E-64  2.1536E-65  1.6816E-66  1.2318E-67  8.5447E-69  5.6638E-70  3.6129E-71  2.2292E-72  1.3350E-73
       7.7854E-75  4.4370E-76  2.4809E-77  1.3658E-78  7.4212E-80  3.9845E-81  2.1153E-82  1.1112E-83  5.7810E-85  2.9817E-86
       1.5258E-87  7.7516E-89  3.9131E-90  1.9646E-91  9.8130E-93  4.8742E-94  2.4066E-95  1.1821E-96  5.7876E-98  2.8276E-99
       1.3771-100  6.6742-102  3.2195-103  1.5502-104  7.4659-106  3.5884-107  1.7151-108  8.1719-110  3.9194-111  1.9037-112
       9.2685-114  4.4725-115  2.2375-116  1.0804-117  5.1010-119  2.4777-120  1.1480-121  5.6473-123  2.6685-124  1.2690-125
       5.9210-127  2.8182-128  1.3221-129  6.3912-131  2.9684-132  1.3797-133  6.2345-135  2.8092-136  1.2967-137  5.9330-139
       2.8322-140
   6   1.6872E-74  3.2505E-73  6.3767E-72  1.2127E-70  2.2258E-69  3.9294E-68  6.6574E-67  1.0808E-65  1.6796E-64  2.4955E-63
       3.5381E-62  4.7717E-61  6.0902E-60  7.3015E-59  8.1691E-58  8.4437E-57  7.9130E-56  6.5585E-55  4.6613E-54  2.7316E-53
       1.2542E-52  4.1724E-52  8.7436E-52  9.1150E-52  8.2715E-52  9.4024E-52  7.8758E-52  4.6288E-52  2.0594E-52  7.3831E-53
       2.2279E-53  5.8100E-54  1.3272E-54  2.6720E-55  4.7595E-56  7.5317E-57  1.0649E-57  1.3544E-58  1.5595E-59  1.6356E-60
       1.5700E-61  1.3859E-62  1.1316E-63  8.6102E-65  6.1611E-66  4.1863E-67  2.7248E-68  1.7106E-69  1.0406E-70  6.1542E-72
       3.5501E-73  2.0045E-74  1.1120E-75  6.0795E-77  3.2825E-78  1.7520E-79  9.2505E-81  4.8352E-82  2.5042E-83  1.2862E-84
       6.5553E-86  3.3178E-87  1.6692E-88  8.3547E-90  4.1606E-91  2.0601E-92  1.0141E-93  4.9688E-95  2.4282E-96  1.1842E-97
       5.7541E-99  2.7814-100  1.3390-101  6.4409-103  3.0989-104  1.4878-105  7.1102-107  3.3883-108  1.6262-109  7.8447-111
       3.8256-112  1.8637-113  8.8820-115  4.3635-116  2.1038-117  9.7749-119  4.7617-120  2.2826-121  1.1037-122  5.1924-124
       2.4440-125  1.1520-126  5.4874-128  2.5590-129  1.2212-130  5.4844-132  2.4765-133  1.1333-134  5.1651-136  2.3892-137
       1.1475-138
   7   8.3610E-73  1.6448E-71  3.2926E-70  6.3902E-69  1.1970E-67  2.1571E-66  3.7314E-65  6.1875E-64  9.8266E-63  1.4931E-61
       2.1667E-60  2.9935E-59  3.9179E-58  4.8213E-57  5.5419E-56  5.8885E-55  5.6746E-54  4.8378E-53  3.5377E-52  2.1334E-51
       1.0072E-50  3.4368E-50  7.3258E-50  7.4945E-50  6.7275E-50  7.7956E-50  6.4720E-50  3.7211E-50  1.6125E-50  5.6229E-51
       1.6499E-51  4.1827E-52  9.2843E-53  1.8156E-53  3.1396E-54  4.8209E-55  6.6116E-56  8.1538E-57  9.1044E-58  9.2594E-59
       8.6226E-60  7.3912E-61  5.8697E-62  4.3539E-63  3.0452E-64  2.0282E-65  1.2972E-66  8.0199E-68  4.8131E-69  2.8131E-70
       1.6062E-71  8.9899E-73  4.9495E-74  2.6879E-75  1.4423E-76  7.6541E-78  4.0199E-79  2.0910E-80  1.0782E-81  5.5146E-83
       2.7993E-84  1.4115E-85  7.0782E-87  3.5322E-88  1.7537E-89  8.6560E-91  4.2483E-92  2.0769E-93  1.0132E-94  4.9316E-96
       2.3902E-97  1.1527E-98  5.5427-100  2.6641-101  1.2791-102  6.1212-104  2.9242-105  1.4003-106  6.7151-108  3.2569-109
       1.5743-110  7.5319-112  3.6690-113  1.7322-114  8.3836-116  4.0127-117  1.9415-118  9.3488-120  4.5398-121  2.1197-122
       1.0010-123  4.7681-125  2.2065-126  1.0445-127  4.6667-129  2.1689-130  9.9635-132  4.4903-133  2.0855-134  9.6232-136
       4.6450-137
   8   4.0753E-71  8.1933E-70  1.6749E-68  3.3198E-67  6.3510E-66  1.1690E-64  2.0657E-63  3.5006E-62  5.6843E-61  8.8368E-60
       1.3131E-58  1.8596E-57  2.4971E-56  3.1558E-55  3.7295E-54  4.0769E-53  4.0435E-52  3.5491E-51  2.6730E-50  1.6606E-49
       8.0713E-49  2.8291E-48  6.1433E-48  6.1590E-48  5.4664E-48  6.4706E-48  5.3176E-48  2.9866E-48  1.2589E-48  4.2652E-49
       1.2157E-49  2.9929E-50  6.4494E-51  1.2239E-51  2.0527E-52  3.0558E-53  4.0612E-54  4.8527E-55  5.2497E-56  5.1741E-57
       4.6725E-58  3.8891E-59  3.0047E-60  2.1737E-61  1.4871E-62  9.7154E-64  6.1112E-65  3.7233E-66  2.2061E-67  1.2750E-68
       7.2095E-70  4.0017E-71  2.1872E-72  1.1801E-73  6.2942E-75  3.3214E-76  1.7354E-77  8.9848E-79  4.6126E-80  2.3493E-81
       1.1878E-82  5.9679E-84  2.9831E-85  1.4842E-86  7.3463E-88  3.6145E-89  1.7691E-90  8.6314E-92  4.2038E-93  2.0418E-94
       9.8696E-96  4.7491E-97  2.2819E-98  1.0968E-99  5.2586-101  2.5070-102  1.1931-103  5.7241-105  2.7687-106  1.3303-107
       6.4151-109  3.1089-110  1.4569-111  7.0919-113  3.3560-114  1.6570-115  7.8976-117  3.8787-118  1.8218-119  8.6802-121
       4.0906-122  1.9091-123  9.1398-125  4.0349-126  1.8741-127  8.5163-129  3.9085-130  1.8121-131  8.3628-133  3.8854-134
       1.8716-135
   9   1.9508E-69  4.0115E-68  8.3814E-67  1.6979E-65  3.3198E-64  6.2454E-63  1.1282E-61  1.9550E-60  3.2479E-59  5.1692E-58
       7.8703E-57  1.1430E-55  1.5756E-54  2.0464E-53  2.4886E-52  2.8010E-51  2.8616E-50  2.5885E-49  2.0100E-48  1.2880E-47
       6.4540E-47  2.3273E-46  5.1565E-46  5.0586E-46  4.4369E-46  5.3773E-46  4.3683E-46  2.3928E-46  9.7974E-47  3.2214E-47
       8.9085E-48  2.1276E-48  4.4466E-49  8.1806E-50  1.3295E-50  1.9167E-51  2.4662E-52  2.8525E-53  2.9874E-54  2.8519E-55
       2.4968E-56  2.0180E-57  1.5173E-58  1.0713E-59  7.1741E-61  4.6012E-62  2.8485E-63  1.7116E-64  1.0019E-65  5.7291E-67
       3.2099E-68  1.7676E-69  9.5937E-71  5.1433E-72  2.7271E-73  1.4312E-74  7.4404E-76  3.8345E-77  1.9600E-78  9.9413E-80
       5.0067E-81  2.5067E-82  1.2492E-83  6.1968E-85  3.0576E-86  1.4998E-87  7.3217E-89  3.5656E-90  1.7337E-91  8.4024E-93
       4.0516E-94  1.9459E-95  9.3404E-97  4.4869E-98  2.1503E-99  1.0249-100  4.8687-102  2.3273-103  1.1224-104  5.4409-106
       2.6005-107  1.2380-108  5.9906-110  2.8312-111  1.3848-112  6.6952-114  3.2903-115  1.5712-116  7.4568-118  3.5384-119
       1.6368-120  7.7153-122  3.4610-123  1.6287-124  7.3470-126  3.3808-127  1.5665-128  7.2538-130  3.3549-131  1.5566-132
       7.5370-134
  10   9.1570E-68  1.9273E-66  4.1190E-65  8.5351E-64  1.7071E-62  3.2851E-61  6.0713E-60  1.0766E-58  1.8311E-57  2.9855E-56
       4.6604E-55  6.9456E-54  9.8352E-53  1.3137E-51  1.6454E-50  1.9086E-49  2.0105E-48  1.8760E-47  1.5036E-46  9.9508E-46
       5.1482E-45  1.9130E-44  4.3324E-44  4.1520E-44  3.5969E-44  4.4746E-44  3.5874E-44  1.9133E-44  7.5989E-45  2.4218E-45
       6.4897E-46  1.5019E-46  3.0410E-47  5.4182E-48  8.5231E-49  1.1888E-49  1.4793E-50  1.6548E-51  1.6765E-52  1.5494E-53
       1.3149E-54  1.0321E-55  7.5562E-57  5.2102E-58  3.4184E-59  2.1541E-60  1.3135E-61  7.7895E-63  4.5074E-64  2.5517E-65
       1.4173E-66  7.7451E-68  4.1754E-69  2.2246E-70  1.1727E-71  6.1217E-73  3.1670E-74  1.6248E-75  8.2695E-77  4.1770E-78
       2.0956E-79  1.0457E-80  5.1956E-82  2.5698E-83  1.2640E-84  6.1820E-86  3.0111E-87  1.4639E-88  7.1048E-90  3.4354E-91
       1.6530E-92  7.9300E-94  3.8035E-95  1.8236E-96  8.7223E-98  4.1649E-99  1.9885-100  9.4862-102  4.5770-103  2.1735-104
       1.0529-105  5.0241-107  2.3987-108  1.1539-109  5.6395-111  2.7274-112  1.3425-113  6.3739-115  3.0442-116  1.4075-117
       6.6830-119  2.9732-120  1.3839-121  6.2700-123  2.9122-124  1.3443-125  6.2702-127  2.8877-128  1.3424-129  6.2317-131
       3.0228-132
  11   4.2081E-66  9.0711E-65  1.9845E-63  4.2101E-62  8.6214E-61  1.6987E-59  3.2146E-58  5.8382E-57  1.0174E-55  1.7007E-54
       2.7239E-53  4.1689E-52  6.0678E-51  8.3435E-50  1.0774E-48  1.2891E-47  1.4014E-46  1.3505E-45  1.1186E-44  7.6552E-44
       4.0956E-43  1.5711E-42  3.6439E-42  3.4052E-42  2.9120E-42  3.7286E-42  2.9450E-42  1.5266E-42  5.8720E-43  1.8114E-43
       4.6976E-44  1.0521E-44  2.0616E-45  3.5534E-46  5.4044E-47  7.2844E-48  8.7576E-49  9.4652E-50  9.2704E-51  8.2905E-52
       6.8197E-53  5.2005E-54  3.7096E-55  2.5002E-56  1.6085E-57  9.9684E-59  5.9919E-60  3.5093E-61  2.0086E-62  1.1263E-63
       6.2038E-65  3.3656E-66  1.8025E-67  9.5450E-69  5.0033E-70  2.5982E-71  1.3378E-72  6.8329E-74  3.4630E-75  1.7421E-76
       8.7080E-78  4.3315E-79  2.1458E-80  1.0582E-81  5.1891E-83  2.5309E-84  1.2303E-85  5.9727E-87  2.8935E-88  1.3957E-89
       6.7013E-91  3.2126E-92  1.5407E-93  7.3733E-95  3.5123E-96  1.6749E-97  8.0440E-99  3.8663-100  1.8386-101  8.8780-103
       4.1754-104  2.0286-105  9.6743-107  4.7332-108  2.2677-109  1.1224-110  5.3477-112  2.6047-113  1.2019-114  5.6290-116
       2.5461-117  1.1944-118  5.3592-120  2.4914-121  1.1561-122  5.3481-124  2.4685-125  1.1545-126  5.3326-128  2.4907-129
       1.2094-130
  12   1.8903E-64  4.1750E-63  9.3560E-62  2.0339E-60  4.2687E-59  8.6205E-58  1.6721E-56  3.1132E-55  5.5638E-54  9.5435E-53
       1.5696E-51  2.4691E-50  3.6969E-49  5.2391E-48  6.9811E-47  8.6240E-46  9.6865E-45  9.6514E-44  8.2721E-43  5.8620E-42
       3.2489E-41  1.2889E-40  3.0680E-40  2.7902E-40  2.3540E-40  3.1117E-40  2.4165E-40  1.2151E-40  4.5193E-41  1.3473E-41
       3.3767E-42  7.3101E-43  1.3845E-43  2.3057E-44  3.3864E-45  4.4057E-46  5.1118E-47  5.3334E-48  5.0465E-49  4.3661E-50
       3.4815E-51  2.5805E-52  1.7948E-53  1.1834E-54  7.4733E-56  4.5587E-57  2.7033E-58  1.5646E-59  8.8632E-61  4.9251E-62
       2.6913E-63  1.4497E-64  7.7145E-66  4.0610E-67  2.1170E-68  1.0938E-69  5.6059E-71  2.8508E-72  1.4388E-73  7.2093E-75
       3.5910E-76  1.7808E-77  8.7974E-79  4.3258E-80  2.1149E-81  1.0288E-82  4.9925E-84  2.4204E-85  1.1707E-86  5.6351E-88
       2.7010E-89  1.2940E-90  6.2062E-92  2.9688E-93  1.4110E-94  6.7063E-96  3.2095E-97  1.5503E-98  7.4399-100  3.5225-101
       1.6955-102  8.0628-104  3.9288-105  1.8891-106  9.3355-108  4.4777-109  2.1615-110  1.0260-111  4.8106-113  2.1655-114
       1.0073-115  4.5456-117  2.1155-118  9.8713-120  4.5486-121  2.1133-122  9.8155-124  4.5520-125  2.1252-126  9.9162-128
       4.8196-129
  13   8.2878E-63  1.8757E-61  4.3077E-60  9.6040E-59  2.0680E-57  4.2853E-56  8.5296E-55  1.6299E-53  2.9904E-52  5.2685E-51
       8.9066E-50  1.4413E-48  2.2224E-47  3.2497E-46  4.4727E-45  5.7107E-44  6.6345E-43  6.8432E-42  6.0775E-41  4.4667E-40
       2.5689E-39  1.0562E-38  2.5862E-38  2.2838E-38  1.8998E-38  2.6011E-38  1.9816E-38  9.6467E-39  3.4631E-39  9.9599E-40
       2.4089E-40  5.0337E-41  9.2031E-42  1.4790E-42  2.0949E-43  2.6274E-44  2.9388E-45  2.9574E-46  2.7020E-47  2.2612E-48
       1.7483E-49  1.2603E-50  8.5548E-52  5.5245E-53  3.4277E-54  2.0599E-55  1.2059E-56  6.9021E-58  3.8715E-59  2.1328E-60
       1.1566E-61  6.1878E-63  3.2722E-64  1.7125E-65  8.8795E-67  4.5655E-68  2.3293E-69  1.1795E-70  5.9285E-72  2.9593E-73
       1.4691E-74  7.2644E-76  3.5791E-77  1.7550E-78  8.5569E-80  4.1533E-81  2.0120E-82  9.7387E-84  4.7013E-85  2.2589E-86
       1.0817E-87  5.1800E-89  2.4829E-90  1.1879E-91  5.6598E-93  2.6908E-94  1.2878E-95  6.1358E-97  2.9586E-98  1.4209E-99
       6.7515-101  3.2510-102  1.5700-103  7.6267-105  3.7495-106  1.7904-107  8.5445-109  3.9572-110  1.8402-111  8.5730-113
       3.8430-114  1.7952-115  8.2919-117  3.8166-118  1.7976-119  8.3055-121  3.8667-122  1.8039-123  8.4240-125  3.9349-126
       1.9114-127
  14   3.5420E-61  8.2129E-60  1.9332E-58  4.4224E-57  9.7802E-56  2.0823E-54  4.2589E-53  8.3626E-52  1.5770E-50  2.8570E-49
       4.9696E-48  8.2821E-47  1.3165E-45  1.9893E-44  2.8309E-43  3.7399E-42  4.4994E-41  4.8108E-40  4.4336E-39  3.3851E-38
       2.0240E-37  8.6439E-37  2.1826E-36  1.8671E-36  1.5303E-36  2.1780E-36  1.6239E-36  7.6357E-37  2.6409E-37  7.3143E-38
       1.7042E-38  3.4324E-39  6.0494E-40  9.3680E-41  1.2780E-41  1.5432E-42  1.6622E-43  1.6120E-44  1.4215E-45  1.1507E-46
       8.6309E-48  6.0562E-49  4.0160E-50  2.5427E-51  1.5516E-52  9.1940E-54  5.3175E-55  3.0113E-56  1.6733E-57  9.1421E-59
       4.9214E-60  2.6156E-61  1.3748E-62  7.1544E-64  3.6903E-65  1.8885E-66  9.5931E-68  4.8377E-69  2.4218E-70  1.2045E-71
       5.9606E-73  2.9394E-74  1.4444E-75  7.0635E-77  3.4354E-78  1.6646E-79  8.0549E-81  3.8933E-82  1.8754E-83  8.9916E-85
       4.3017E-86  2.0591E-87  9.8512E-89  4.7016E-90  2.2449E-91  1.0748E-92  5.1265E-94  2.4587E-95  1.1666E-96  5.6392E-98
       2.7027E-99  1.3015-100  6.2483-102  3.0727-103  1.4548-104  7.1953-106  3.2722-107  1.5361-108  7.0371-110  3.2093-111
       1.5146-112  6.9475-114  3.2230-115  1.5043-116  6.9742-118  3.2708-119  1.5208-120  7.1182-122  3.3227-123  1.5530-124
       7.5443-126
  15   1.4743E-59  3.5016E-58  8.4474E-57  1.9834E-55  4.5065E-54  9.8668E-53  2.0767E-51  4.1966E-50  8.1455E-49  1.5193E-47
       2.7224E-46  4.6772E-45  7.6804E-44  1.2004E-42  1.7682E-41  2.4198E-40  3.0188E-39  3.3505E-38  3.2094E-37  2.5502E-36
       1.5884E-35  7.0630E-35  1.8442E-34  1.5242E-34  1.2301E-34  1.8271E-34  1.3295E-34  6.0243E-35  2.0030E-35  5.3319E-36
       1.1947E-36  2.3156E-37  3.9281E-38  5.8529E-39  7.6788E-40  8.9157E-41  9.2375E-42  8.6275E-43  7.3411E-44  5.7495E-45
       4.1862E-46  2.8620E-47  1.8562E-48  1.1535E-49  6.9296E-51  4.0520E-52  2.3168E-53  1.2988E-54  7.1529E-56  3.8772E-57
       2.0724E-58  1.0944E-59  5.7183E-61  2.9595E-62  1.5189E-63  7.7375E-65  3.9140E-66  1.9659E-67  9.8038E-69  4.8591E-70
       2.3977E-71  1.1795E-72  5.7815E-74  2.8196E-75  1.3679E-76  6.6176E-78  3.1999E-79  1.5456E-80  7.4351E-82  3.5597E-83
       1.7021E-84  8.1484E-86  3.8926E-87  1.8498E-88  8.7997E-90  4.2280E-91  2.0392E-92  9.7262E-94  4.6654E-95  2.2132E-96
       1.0754E-97  5.1399E-99  2.5279-100  1.1890-101  5.8035-103  2.6428-104  1.2881-105  5.8208-107  2.6863-108  1.2484-109
       5.7192-111  2.7018-112  1.2553-113  5.8394-115  2.7363-116  1.2786-117  5.9784-119  2.7924-120  1.3049-121  6.0930-123
       2.9627-124
  16   5.9728E-58  1.4533E-56  3.5929E-55  8.6558E-54  2.0211E-52  4.5535E-51  9.8677E-50  2.0548E-48  4.1119E-47  7.9083E-46
       1.4618E-44  2.5931E-43  4.4064E-42  7.1315E-41  1.0886E-39  1.5453E-38  2.0017E-37  2.3098E-36  2.3037E-35  1.9086E-34
       1.2411E-33  5.7610E-33  1.5604E-32  1.2423E-32  9.8651E-33  1.5358E-32  1.0874E-32  4.7356E-33  1.5099E-33  3.8549E-34
       8.2913E-35  1.5439E-35  2.5166E-36  3.6022E-37  4.5379E-38  5.0594E-39  5.0373E-40  4.5282E-41  3.7175E-42  2.8182E-43
       1.9936E-44  1.3295E-45  8.4436E-47  5.1560E-48  3.0523E-49  1.7626E-50  9.9686E-52  5.5350E-53  3.0224E-54  1.6259E-55
       8.6316E-57  4.5300E-58  2.3533E-59  1.2115E-60  6.1881E-62  3.1386E-63  1.5813E-64  7.9114E-66  3.9311E-67  1.9421E-68
       9.5584E-70  4.6916E-71  2.2946E-72  1.1164E-73  5.4041E-75  2.6097E-76  1.2603E-77  6.0801E-79  2.9218E-80  1.3983E-81
       6.6891E-83  3.2058E-84  1.5334E-85  7.2856E-87  3.4582E-88  1.6502E-89  7.9688E-91  3.8399E-92  1.8216E-93  8.7881E-95
       4.2060E-96  2.0437E-97  9.7287E-99  4.7885-100  2.1687-101  1.0363-102  4.6861-104  2.2346-105  1.0311-106  4.7453-108
       2.2296-109  1.0363-110  4.8677-112  2.2744-113  1.0664-114  4.9910-116  2.3313-117  1.0900-118  5.0891-120  2.3797-121
       1.1568-122
  17   2.3516E-56  5.8649E-55  1.4865E-53  3.6755E-52  8.8184E-51  2.0443E-49  4.5652E-48  9.8050E-47  2.0246E-45  4.0203E-44
       7.6796E-43  1.4102E-41  2.4825E-40  4.1652E-39  6.5973E-38  9.7272E-37  1.3103E-35  1.5746E-34  1.6381E-33  1.4181E-32
       9.6501E-32  4.6894E-31  1.3220E-30  1.0106E-30  7.8899E-31  1.2937E-30  8.8817E-31  3.7067E-31  1.1305E-31  2.7617E-32
       5.6903E-33  1.0161E-33  1.5887E-34  2.1806E-35  2.6336E-36  2.8157E-37  2.6913E-38  2.3276E-39  1.8441E-40  1.3541E-41
       9.3165E-43  6.0683E-44  3.7786E-45  2.2698E-46  1.3253E-47  7.5632E-49  4.2335E-50  2.3292E-51  1.2615E-52  6.7369E-54
       3.5533E-55  1.8537E-56  9.5765E-58  4.9051E-59  2.4939E-60  1.2597E-61  6.3222E-63  3.1516E-64  1.5606E-65  7.6871E-67
       3.7741E-68  1.8486E-69  9.0232E-71  4.3819E-72  2.1182E-73  1.0220E-74  4.9292E-76  2.3733E-77  1.1380E-78  5.4396E-80
       2.6015E-81  1.2464E-82  5.9664E-84  2.8478E-85  1.3556E-86  6.4827E-88  3.1007E-89  1.4912E-90  7.1885E-92  3.4326E-93
       1.6589E-94  7.8812E-96  3.7913E-97  1.7740E-98  8.5257-100  3.8219-101  1.8140-102  8.3273-104  3.9161-105  1.8322-106
       8.5321-108  4.0161-109  1.8818-110  8.8307-112  4.1324-113  1.9358-114  9.0269-116  4.2246-117  1.9748-118  9.2347-120
       4.4892-121
  18   8.9790E-55  2.2969E-53  5.9723E-52  1.5165E-50  3.7409E-49  8.9270E-48  2.0547E-46  4.5538E-45  9.7145E-44  1.9952E-42
       3.9458E-41  7.5084E-40  1.3709E-38  2.3877E-37  3.9296E-36  6.0267E-35  8.4560E-34  1.0602E-32  1.1528E-31  1.0452E-30
       7.4622E-30  3.8080E-29  1.1216E-28  8.2021E-29  6.2905E-29  1.0920E-28  7.2422E-29  2.8870E-29  8.3983E-30  1.9584E-30
       3.8571E-31  6.5910E-32  9.8661E-33  1.2962E-33  1.4983E-34  1.5341E-35  1.4066E-36  1.1702E-37  8.9504E-39  6.3721E-40
       4.2697E-41  2.7199E-42  1.6627E-43  9.8352E-45  5.6686E-46  3.1991E-47  1.7732E-48  9.6709E-50  5.1973E-51  2.7563E-52
       1.4446E-53  7.4931E-55  3.8505E-56  1.9627E-57  9.9359E-59  4.9992E-60  2.5000E-61  1.2420E-62  6.1309E-64  3.0119E-65
       1.4756E-66  7.2128E-68  3.5129E-69  1.7026E-70  8.2216E-72  3.9671E-73  1.9141E-74  9.2093E-76  4.4089E-77  2.1050E-78
       1.0060E-79  4.8092E-81  2.2935E-82  1.0958E-83  5.2649E-85  2.5193E-86  1.2083E-87  5.7668E-89  2.7772E-90  1.3332E-91
       6.3858E-93  3.0543E-94  1.4303E-95  6.7635E-97  3.1137E-98  1.4821E-99  6.7498-101  3.1928-102  1.4906-103  6.9838-105
       3.2902-106  1.5433-107  7.2599-109  3.3968-110  1.5914-111  7.4337-113  3.4763-114  1.6253-115  7.6079-117  3.5587-118
       1.7295-119
  19   3.3162E-53  8.7074E-52  2.3244E-50  6.0660E-49  1.5397E-47  3.7851E-46  8.9867E-45  2.0572E-43  4.5385E-42  9.6509E-41
       1.9783E-39  3.9057E-38  7.4056E-37  1.3408E-35  2.2962E-34  3.6691E-33  5.3717E-32  7.0402E-31  8.0193E-30  7.6339E-29
       5.7347E-28  3.0839E-27  9.5292E-27  6.6400E-27  4.9977E-27  9.2377E-27  5.8925E-27  2.2357E-27  6.1845E-28  1.3729E-28
       2.5785E-29  4.2073E-30  6.0165E-31  7.5508E-32  8.3390E-33  8.1669E-34  7.1792E-35  5.7455E-36  4.2459E-37  2.9344E-38
       1.9176E-39  1.1964E-40  7.1886E-42  4.1917E-43  2.3867E-44  1.3328E-45  7.3188E-47  3.9585E-48  2.1116E-49  1.1124E-50
       5.7956E-52  2.9896E-53  1.5285E-54  7.7558E-56  3.9103E-57  1.9603E-58  9.7699E-60  4.8381E-61  2.3815E-62  1.1674E-63
       5.7097E-65  2.7866E-66  1.3545E-67  6.5494E-69  3.1569E-70  1.5221E-71  7.3453E-73  3.5354E-74  1.6931E-75  8.0897E-77
       3.8711E-78  1.8504E-79  8.7911E-81  4.1833E-82  2.0110E-83  9.7139E-85  4.6281E-86  2.2306E-87  1.0598E-88  5.0979E-90
       2.4162E-91  1.1502E-92  5.4392E-94  2.5156E-95  1.1843E-96  5.4719E-98  2.5888E-99  1.2035-100  5.6739-102  2.6711-103
       1.2579-104  5.9052-106  2.7695-107  1.2971-108  6.0606-110  2.8388-111  1.3266-112  6.2091-114  2.9066-115  1.3599-116
       6.6076-118
  20   1.1811E-51  3.1857E-50  8.7377E-49  2.3454E-47  6.1303E-46  1.5540E-44  3.8092E-43  9.0151E-42  2.0589E-40  4.5381E-39
       9.6537E-38  1.9800E-36  3.9042E-35  7.3588E-34  1.3135E-32  2.1906E-31  3.3530E-30  4.6037E-29  5.5067E-28  5.5190E-27
       4.3762E-26  2.4894E-25  8.1082E-25  5.3590E-25  3.9547E-25  7.8322E-25  4.7817E-25  1.7200E-25  4.5092E-26  9.5008E-27
       1.6971E-27  2.6377E-28  3.5951E-29  4.3009E-30  4.5305E-31  4.2394E-32  3.5716E-33  2.7510E-34  1.9663E-35  1.3211E-36
       8.4327E-38  5.1602E-39  3.0512E-40  1.7554E-41  9.8814E-43  5.4632E-44  2.9735E-45  1.5956E-46  8.4516E-48  4.4244E-49
       2.2919E-50  1.1761E-51  5.9845E-53  3.0236E-54  1.5187E-55  7.5882E-57  3.7701E-58  1.8614E-59  9.1385E-61  4.4705E-62
       2.1835E-63  1.0646E-64  5.1693E-66  2.4966E-67  1.2017E-68  5.7851E-70  2.7870E-71  1.3395E-72  6.4120E-74  3.0665E-75
       1.4702E-76  7.0460E-78  3.3545E-79  1.5956E-80  7.6318E-82  3.6609E-83  1.7652E-84  8.3657E-86  4.0567E-87  1.9129E-88
       9.0853E-90  4.2902E-91  2.0143E-92  9.4637E-94  4.3998E-95  2.0748E-96  9.7168E-98  4.5631E-99  2.1461-100  1.0128-101
       4.7538-103  2.2360-104  1.0450-105  4.9000-107  2.2866-108  1.0735-109  5.0209-111  2.3500-112  1.1000-113  5.1473-115
       2.5003-116
  21   4.0421E-50  1.1210E-48  3.1616E-47  8.7360E-46  2.3534E-44  6.1565E-43  1.5596E-41  3.8199E-40  9.0413E-39  2.0681E-37
       4.5712E-36  9.7536E-35  2.0031E-33  3.9369E-32  7.3370E-31  1.2796E-29  2.0521E-28  2.9587E-27  3.7263E-26  3.9441E-25
       3.3127E-24  2.0020E-23  6.9096E-23  4.3097E-23  3.1150E-23  6.6560E-23  3.8679E-23  1.3132E-23  3.2505E-24  6.4790E-25
       1.0974E-25  1.6203E-26  2.0996E-27  2.3891E-28  2.3965E-29  2.1408E-30  1.7285E-31  1.2824E-32  8.8783E-34  5.8086E-35
       3.6274E-36  2.1801E-37  1.2700E-38  7.2152E-40  4.0179E-41  2.2005E-42  1.1877E-43  6.3254E-45  3.3280E-46  1.7318E-47
       8.9229E-49  4.5562E-50  2.3081E-51  1.1615E-52  5.8142E-54  2.8963E-55  1.4350E-56  7.0666E-58  3.4611E-59  1.6899E-60
       8.2410E-62  4.0128E-63  1.9467E-64  9.4005E-66  4.5276E-67  2.1805E-68  1.0494E-69  5.0323E-71  2.4040E-72  1.1487E-73
       5.5040E-75  2.6384E-76  1.2614E-77  6.0068E-79  2.8717E-80  1.3807E-81  6.5382E-83  3.1560E-84  1.4917E-85  7.1817E-87
       3.3644E-88  1.5895E-89  7.4783E-91  3.4916E-92  1.6453E-93  7.7061E-95  3.6322E-96  1.7123E-97  8.0588E-99  3.7852-100
       1.7816-101  8.3339-103  3.9081-104  1.8279-105  8.5550-107  4.0133-108  1.8789-109  8.7960-111  4.1169-112  1.9267-113
       9.3560-115
  22   1.3238E-48  3.7779E-47  1.0966E-45  3.1222E-44  8.6766E-43  2.3447E-41  6.1443E-40  1.5591E-38  3.8289E-37  9.1002E-36
       2.0929E-34  4.6528E-33  9.9683E-32  2.0465E-30  3.9901E-29  7.2926E-28  1.2282E-26  1.8645E-25  2.4799E-24  2.7815E-23
       2.4846E-22  1.6030E-21  5.8973E-21  3.4511E-21  2.4404E-21  5.6700E-21  3.1166E-21  9.9380E-22  2.3127E-22  4.3446E-23
       6.9553E-24  9.7262E-25  1.1949E-25  1.2904E-26  1.2307E-27  1.0489E-28  8.1199E-30  5.8103E-31  3.9028E-32  2.4908E-33
       1.5243E-34  9.0090E-36  5.1754E-37  2.9060E-38  1.6019E-39  8.6951E-41  4.6558E-42  2.4620E-43  1.2872E-44  6.6607E-46
       3.4145E-47  1.7355E-48  8.7554E-50  4.3901E-51  2.1907E-52  1.0883E-53  5.3788E-55  2.6429E-56  1.2922E-57  6.3002E-59
       3.0684E-60  1.4915E-61  7.2215E-63  3.4827E-64  1.6781E-65  8.0958E-67  3.9017E-68  1.8709E-69  8.9308E-71  4.2646E-72
       2.0403E-73  9.7458E-75  4.6534E-76  2.2288E-77  1.0659E-78  5.0752E-80  2.4427E-81  1.1483E-82  5.5418E-84  2.5998E-85
       1.2403E-86  5.8145E-88  2.7356E-89  1.2906E-90  6.0543E-92  2.8444E-93  1.3426E-94  6.3026E-96  2.9810E-97  1.3961E-98
       6.5652-100  3.0698-101  1.4401-102  6.7493-104  3.1583-105  1.4817-106  6.9391-108  3.2493-109  1.5208-110  7.1176-112
       3.4549-113
  23   4.1285E-47  1.2136E-45  3.6292E-44  1.0656E-42  3.0578E-41  8.5439E-40  2.3186E-38  6.1021E-37  1.5568E-35  3.8497E-34
       9.2264E-33  2.1405E-31  4.7925E-30  1.0298E-28  2.1049E-27  4.0412E-26  7.1664E-25  1.1488E-23  1.6191E-22  1.9318E-21
       1.8435E-20  1.2767E-19  5.0413E-19  2.7495E-19  1.9000E-19  4.8419E-19  2.4995E-19  7.4431E-20  1.6206E-20  2.8575E-21
       4.3076E-22  5.6860E-23  6.6039E-24  6.7524E-25  6.1154E-26  4.9719E-27  3.6938E-28  2.5534E-29  1.6673E-30  1.0399E-31
       6.2453E-33  3.6344E-34  2.0609E-35  1.1445E-36  6.2491E-38  3.3635E-39  1.7875E-40  9.3893E-42  4.8799E-43  2.5119E-44
       1.2816E-45  6.4867E-47  3.2601E-48  1.6293E-49  8.1075E-51  4.0177E-52  1.9811E-53  9.7145E-55  4.7427E-56  2.3109E-57
       1.1251E-58  5.4653E-60  2.6418E-61  1.2712E-62  6.1148E-64  2.9489E-65  1.4222E-66  6.8267E-68  3.2624E-69  1.5599E-70
       7.4685E-72  3.5606E-73  1.6940E-74  8.0745E-76  3.8842E-77  1.8515E-78  8.7754E-80  4.2229E-81  1.9796E-82  9.4760E-84
       4.4459E-85  2.1078E-86  9.9188E-88  4.6574E-89  2.2045E-90  1.0353E-91  4.8710E-93  2.2967E-94  1.0798E-95  5.0739E-97
       2.3779E-98  1.1153E-99  5.2234-101  2.4531-102  1.1486-103  5.3870-105  2.5229-106  1.1816-107  5.5305-109  2.5884-110
       1.2558-111
  24   1.2188E-45  3.6943E-44  1.1392E-42  3.4531E-41  1.0242E-39  2.9623E-38  8.3341E-37  2.2777E-35  6.0444E-34  1.5575E-32
       3.8959E-31  9.4488E-30  2.2153E-28  4.9928E-27  1.0724E-25  2.1685E-24  4.0609E-23  6.8971E-22  1.0339E-20  1.3179E-19
       1.3507E-18  1.0105E-17  4.3165E-17  2.1771E-17  1.4685E-17  4.1449E-17  1.9929E-17  5.5064E-18  1.1156E-18  1.8374E-19
       2.5972E-20  3.2241E-21  3.5289E-22  3.4091E-23  2.9291E-24  2.2725E-25  1.6227E-26  1.0858E-27  6.9064E-29  4.2170E-30
       2.4889E-31  1.4276E-32  7.9980E-34  4.3959E-35  2.3787E-36  1.2702E-37  6.7025E-39  3.4986E-40  1.8083E-41  9.2629E-43
       4.7056E-44  2.3724E-45  1.1882E-46  5.9214E-48  2.9393E-49  1.4534E-50  7.1518E-52  3.5000E-53  1.7059E-54  8.3046E-56
       4.0429E-57  1.9645E-58  9.4987E-60  4.5696E-61  2.1955E-62  1.0568E-63  5.0868E-65  2.4397E-66  1.1667E-67  5.5873E-69
       2.6797E-70  1.2792E-71  6.0672E-73  2.8956E-74  1.3777E-75  6.6029E-77  3.1359E-78  1.4857E-79  7.1247E-81  3.3311E-82
       1.5901E-83  7.4843E-85  3.5208E-86  1.6623E-87  7.8168E-89  3.6958E-90  1.7403E-91  8.1827E-93  3.8490E-94  1.8045E-95
       8.4728E-97  3.9739E-98  1.8620E-99  8.7502-101  4.0995-102  1.9223-103  9.0018-105  4.2166-106  1.9738-107  9.2382-109
       4.4795-110
  25   3.3820E-44  1.0581E-42  3.3684E-41  1.0551E-39  3.2384E-38  9.7061E-37  2.8343E-35  8.0543E-34  2.2265E-32  5.9873E-31
       1.5658E-29  3.9778E-28  9.7861E-27  2.3189E-25  5.2482E-24  1.1209E-22  2.2242E-21  4.0172E-20  6.4321E-19  8.8029E-18
       9.7483E-17  7.9368E-16  3.7020E-15  1.7110E-15  1.1250E-15  3.5572E-15  1.5777E-15  4.0140E-16  7.5194E-17  1.1504E-17
       1.5176E-18  1.7643E-19  1.8139E-20  1.6523E-21  1.3462E-22  9.9771E-24  6.8602E-25  4.4535E-26  2.7648E-27  1.6554E-28
       9.6134E-30  5.4406E-31  3.0137E-32  1.6404E-33  8.8017E-35  4.6649E-36  2.4453E-37  1.2690E-38  6.5251E-40  3.3274E-41
       1.6836E-42  8.4579E-44  4.2232E-45  2.0991E-46  1.0398E-47  5.1325E-49  2.5214E-50  1.2320E-51  5.9962E-53  2.9149E-54
       1.4173E-55  6.8818E-57  3.3282E-58  1.6033E-59  7.7156E-61  3.7143E-62  1.7845E-63  8.5383E-65  4.0789E-66  1.9539E-67
       9.3731E-69  4.4787E-70  2.1290E-71  1.0110E-72  4.8282E-74  2.2879E-75  1.0922E-76  5.1982E-78  2.4556E-79  1.1686E-80
       5.4857E-82  2.6090E-83  1.2252E-84  5.7796E-86  2.7280E-87  1.2837E-88  6.0706E-90  2.8447E-91  1.3403E-92  6.2728E-94
       2.9526E-95  1.3850E-96  6.4914E-98  3.0497E-99  1.4293-100  6.7027-102  3.1384-103  1.4702-104  6.8826-106  3.2216-107
       1.5610-108
  26   8.7424E-43  2.8265E-41  9.2996E-40  3.0139E-38  9.5831E-37  2.9800E-35  9.0439E-34  2.6760E-32  7.7173E-31  2.1694E-29
       5.9432E-28  1.5847E-26  4.1008E-25  1.0244E-23  2.4499E-22  5.5456E-21  1.1703E-19  2.2575E-18  3.8799E-17  5.7333E-16
       6.9107E-15  6.1758E-14  3.1802E-13  1.3323E-13  8.5278E-14  3.0605E-13  1.2378E-13  2.8740E-14  4.9408E-15  6.9774E-16
       8.5422E-17  9.2578E-18  8.9110E-19  7.6415E-20  5.9044E-21  4.1868E-22  2.7786E-23  1.7540E-24  1.0648E-25  6.2599E-27
       3.5811E-28  2.0013E-29  1.0969E-30  5.9162E-32  3.1492E-33  1.6574E-34  8.6338E-36  4.4560E-37  2.2804E-38  1.1581E-39
       5.8384E-41  2.9236E-42  1.4557E-43  7.2186E-45  3.5688E-46  1.7587E-47  8.6289E-49  4.2124E-50  2.0490E-51  9.9539E-53
       4.8337E-54  2.3422E-55  1.1305E-56  5.4442E-58  2.6240E-59  1.2658E-60  6.0848E-62  2.9076E-63  1.3869E-64  6.6384E-66
       3.1813E-67  1.5181E-68  7.2253E-70  3.4447E-71  1.6379E-72  7.7811E-74  3.6758E-75  1.7582E-76  8.3357E-78  3.9275E-79
       1.8604E-80  8.7709E-82  4.1477E-83  1.9579E-84  9.2319E-86  4.3451E-87  2.0508E-88  9.6189E-90  4.5295E-91  2.1215E-92
       9.9894E-94  4.6904E-95  2.1979E-96  1.0322E-97  4.8387E-99  2.2695-100  1.0626-101  4.9779-103  2.3305-104  1.0909-105
       5.2810-107
  27   2.0820E-41  6.9648E-40  2.3712E-38  7.9607E-37  2.6255E-35  8.4820E-34  2.6790E-32  8.2661E-31  2.4912E-29  7.3342E-28
       2.1090E-26  5.9164E-25  1.6145E-23  4.2639E-22  1.0812E-20  2.6037E-19  5.8685E-18  1.2151E-16  2.2546E-15  3.6220E-14
       4.7925E-13  4.7495E-12  2.7364E-11  1.0253E-11  6.3805E-12  2.6397E-11  9.6012E-12  2.0126E-12  3.1470E-13  4.0716E-14
       4.5966E-15  4.6203E-16  4.1499E-17  3.3461E-18  2.4540E-19  1.6684E-20  1.0714E-21  6.5896E-23  3.9178E-24  2.2643E-25
       1.2771E-26  7.0532E-28  3.8271E-29  2.0465E-30  1.0812E-31  5.6523E-33  2.9273E-34  1.5031E-35  7.6585E-37  3.8744E-38
       1.9468E-39  9.7206E-41  4.8281E-42  2.3890E-43  1.1789E-44  5.7998E-46  2.8414E-47  1.3857E-48  6.7386E-50  3.2749E-51
       1.5906E-52  7.7009E-54  3.7095E-55  1.7822E-56  8.5795E-58  4.1406E-59  1.9930E-60  9.5310E-62  4.5454E-63  2.1737E-64
       1.0403E-65  4.9552E-67  2.3557E-68  1.1248E-69  5.3656E-71  2.5359E-72  1.2024E-73  5.7019E-75  2.7149E-76  1.2798E-77
       6.0513E-79  2.8565E-80  1.3480E-81  6.3904E-83  3.0047E-84  1.4158E-85  6.6694E-87  3.1335E-88  1.4751E-89  6.9147E-91
       3.2528E-92  1.5285E-93  7.1643E-95  3.3634E-96  1.5767E-97  7.3966E-99  3.4633-100  1.6224-101  7.5956-103  3.5554-104
       1.7193-105
  28   4.5027E-40  1.5606E-38  5.5050E-37  1.9171E-35  6.5674E-34  2.2073E-32  7.2667E-31  2.3419E-29  7.3886E-28  2.2827E-26
       6.9057E-25  2.0434E-23  5.8977E-22  1.6522E-20  4.4589E-19  1.1472E-17  2.7755E-16  6.2032E-15  1.2511E-13  2.2031E-12
       3.2333E-11  3.5982E-10  2.3585E-09  7.7723E-10  4.6963E-10  2.2823E-09  7.3374E-10  1.3702E-10  1.9280E-11  2.2649E-12
       2.3403E-13  2.1694E-14  1.8125E-15  1.3731E-16  9.5711E-18  6.2540E-19  3.8941E-20  2.3375E-21  1.3626E-22  7.7486E-24
       4.3118E-25  2.3545E-26  1.2654E-27  6.7108E-29  3.5199E-30  1.8285E-31  9.4173E-33  4.8122E-34  2.4417E-35  1.2308E-36
       6.1654E-38  3.0703E-39  1.5216E-40  7.5152E-42  3.7024E-43  1.8186E-44  8.8947E-46  4.3312E-47  2.1040E-48  1.0222E-49
       4.9674E-51  2.4067E-52  1.1596E-53  5.5656E-55  2.6737E-56  1.2877E-57  6.1932E-59  2.9645E-60  1.4157E-61  6.7708E-63
       3.2359E-64  1.5390E-65  7.3087E-67  3.4870E-68  1.6643E-69  7.8814E-71  3.7208E-72  1.7679E-73  8.3793E-75  3.9655E-76
       1.8758E-77  8.8567E-79  4.1696E-80  1.9774E-81  9.2995E-83  4.3791E-84  2.0639E-85  9.6904E-87  4.5663E-88  2.1404E-89
       1.0064E-90  4.7304E-92  2.2181E-93  1.0412E-94  4.8803E-96  2.2895E-97  1.0720E-98  5.0217-100  2.3509-101  1.1004-102
       5.3137-104
  29   8.6762E-39  3.1199E-37  1.1419E-35  4.1307E-34  1.4720E-32  5.1550E-31  1.7718E-29  5.9749E-28  1.9773E-26  6.4251E-25
       2.0500E-23  6.4163E-22  1.9651E-20  5.8615E-19  1.6908E-17  4.6710E-16  1.2201E-14  2.9636E-13  6.5491E-12  1.2772E-10
       2.1053E-09  2.6726E-08  2.0361E-07  5.7748E-08  3.3841E-08  1.9781E-07  5.4969E-08  8.9929E-09  1.1236E-09  1.1856E-10
       1.1113E-11  9.4414E-13  7.3137E-14  5.2035E-15  3.4523E-16  2.1722E-17  1.3133E-18  7.7000E-20  4.4034E-21  2.4646E-22
       1.3535E-23  7.3091E-25  3.8911E-26  2.0469E-27  1.0660E-28  5.5035E-30  2.8190E-31  1.4337E-32  7.2451E-34  3.6393E-35
       1.8174E-36  9.0270E-38  4.4638E-39  2.2006E-40  1.0825E-41  5.3103E-43  2.5940E-44  1.2614E-45  6.1180E-47  2.9676E-48
       1.4403E-49  6.9765E-51  3.3643E-52  1.6166E-53  7.7645E-55  3.7317E-56  1.7902E-57  8.5615E-59  4.0929E-60  1.9594E-61
       9.3595E-63  4.4458E-64  2.1097E-65  1.0056E-66  4.7932E-68  2.2712E-69  1.0743E-70  5.0929E-72  2.4096E-73  1.1398E-74
       5.4049E-76  2.5489E-77  1.2014E-78  5.6817E-80  2.6745E-81  1.2586E-82  5.9378E-84  2.7839E-85  1.3131E-86  6.1571E-88
       2.8941E-89  1.3600E-90  6.3782E-92  2.9940E-93  1.4031E-94  6.5815E-96  3.0817E-97  1.4435E-98  6.7573-100  3.1627-101
       1.5246-102
  30   1.4506E-37  5.4199E-36  2.0614E-34  7.7581E-33  2.8804E-31  1.0529E-29  3.7849E-28  1.3382E-26  4.6554E-25  1.5948E-23
       5.3816E-22  1.7874E-20  5.8302E-19  1.8596E-17  5.7625E-16  1.7193E-14  4.8818E-13  1.2994E-11  3.1774E-10  6.9532E-09
       1.3074E-07  1.9320E-06  1.7606E-05  4.1730E-06  2.3698E-06  1.7184E-05  4.0057E-06  5.6164E-07  6.1271E-08  5.7307E-09
       4.8199E-10  3.7266E-11  2.6656E-12  1.7791E-13  1.1242E-14  6.8121E-16  3.9982E-17  2.2886E-18  1.2832E-19  7.0654E-21
       3.8270E-22  2.0429E-23  1.0768E-24  5.6165E-26  2.9033E-27  1.4890E-28  7.5836E-30  3.8379E-31  1.9311E-32  9.6639E-34
       4.8105E-35  2.3825E-36  1.1752E-37  5.7807E-39  2.8381E-40  1.3900E-41  6.7824E-43  3.2954E-44  1.5967E-45  7.7322E-47
       3.7443E-48  1.8099E-49  8.7190E-51  4.1911E-52  2.0145E-53  9.6785E-55  4.6346E-56  2.2119E-57  1.0565E-58  5.0590E-60
       2.4168E-61  1.1476E-62  5.4428E-64  2.5918E-65  1.2336E-66  5.8417E-68  2.7663E-69  1.3120E-70  6.2023E-72  2.9278E-73
       1.3888E-74  6.5466E-76  3.0869E-77  1.4596E-78  6.8631E-80  3.2300E-81  1.5240E-82  7.1438E-84  3.3699E-85  1.5807E-86
       7.4285E-88  3.4893E-89  1.6364E-90  7.6811E-92  3.5991E-93  1.6880E-94  7.9030E-96  3.7016E-97  1.7326E-98  8.1087-100
       3.9003-101
  31   2.0242E-36  7.8712E-35  3.1160E-33  1.2221E-31  4.7358E-30  1.8100E-28  6.8192E-27  2.5331E-25  9.2865E-24  3.3632E-22
       1.2040E-20  4.2589E-19  1.4857E-17  5.0923E-16  1.7050E-14  5.5325E-13  1.7219E-11  5.0730E-10  1.3899E-08  3.4701E-07
       7.5943E-06  1.3428E-04  1.5249E-03  2.8952E-04  1.5934E-04  1.4962E-03  2.8023E-04  3.2681E-05  3.0452E-06  2.4825E-07
       1.8490E-08  1.2885E-09  8.4496E-11  5.2714E-12  3.1610E-13  1.8379E-14  1.0433E-15  5.8106E-17  3.1843E-18  1.7198E-19
       9.1650E-21  4.8249E-22  2.5131E-23  1.2972E-24  6.6446E-26  3.3806E-27  1.7095E-28  8.5979E-30  4.3026E-31  2.1429E-32
       1.0622E-33  5.2413E-35  2.5765E-36  1.2634E-37  6.1843E-39  3.0207E-40  1.4706E-41  7.1337E-43  3.4522E-44  1.6696E-45
       8.0707E-47  3.8926E-48  1.8710E-49  8.9774E-51  4.3103E-52  2.0696E-53  9.9051E-55  4.7223E-56  2.2515E-57  1.0761E-58
       5.1360E-60  2.4389E-61  1.1566E-62  5.5019E-64  2.6147E-65  1.2371E-66  5.8564E-68  2.7775E-69  1.3125E-70  6.1943E-72
       2.9330E-73  1.3824E-74  6.5109E-76  3.0813E-77  1.4469E-78  6.8109E-80  3.2122E-81  1.5060E-82  7.0984E-84  3.3296E-85
       1.5645E-86  7.3455E-88  3.4440E-89  1.6162E-90  7.5713E-92  3.5501E-93  1.6618E-94  7.7822E-96  3.6418E-97  1.7041E-98
       8.1742-100
  32   2.2164E-35  8.9842E-34  3.7082E-32  1.5183E-30  6.1520E-29  2.4636E-27  9.7477E-26  3.8136E-24  1.4771E-22  5.6726E-21
       2.1620E-19  8.1777E-18  3.0659E-16  1.1358E-14  4.1374E-13  1.4723E-11  5.0744E-10  1.6758E-08  5.2358E-07  1.5222E-05
       3.9862E-04  8.7721E-03  0.1323      1.8820E-02  1.0061E-02  0.1306      1.8362E-02  1.7055E-03  1.3174E-04  9.1593E-06
       5.9426E-07  3.6668E-08  2.1761E-09  1.2517E-10  7.0227E-12  3.8637E-13  2.0936E-14  1.1207E-15  5.9354E-17  3.1126E-18
       1.6167E-19  8.3223E-21  4.2499E-22  2.1555E-23  1.0869E-24  5.4525E-26  2.7226E-27  1.3538E-28  6.7057E-30  3.3089E-31
       1.6265E-32  7.9649E-34  3.8884E-35  1.8944E-36  9.2168E-38  4.4765E-39  2.1679E-40  1.0465E-41  5.0412E-43  2.4279E-44
       1.1694E-45  5.6229E-47  2.6950E-48  1.2887E-49  6.1630E-51  2.9483E-52  1.4076E-53  6.7007E-55  3.1885E-56  1.5193E-57
       7.2284E-59  3.4254E-60  1.6222E-61  7.7040E-63  3.6549E-64  1.7262E-65  8.1540E-67  3.8596E-68  1.8217E-69  8.5944E-71
       4.0614E-72  1.9104E-73  8.9887E-75  4.2496E-76  1.9941E-77  9.3720E-79  4.4177E-80  2.0700E-81  9.7428E-83  4.5661E-84
       2.1440E-85  1.0057E-86  4.7121E-88  2.2095E-89  1.0344E-90  4.8467E-92  2.2674E-93  1.0612E-94  4.9628E-96  2.3209E-97
       1.1096E-98
  33   1.7011E-34  7.1990E-33  3.1029E-31  1.3286E-29  5.6397E-28  2.3710E-26  9.8750E-25  4.0791E-23  1.6741E-21  6.8398E-20
       2.7860E-18  1.1321E-16  4.5869E-15  1.8491E-13  7.3903E-12  2.9143E-10  1.1271E-08  4.2445E-07  1.5463E-05  5.3874E-04
       1.7579E-02  0.5124       11.49       1.085      0.5685       11.42       1.065      7.3608E-02  4.5168E-03  2.6018E-04
       1.4401E-05  7.7450E-07  4.0729E-08  2.1033E-09  1.0706E-10  5.3904E-12  2.6926E-13  1.3369E-14  6.6038E-16  3.2454E-17
       1.5865E-18  7.7161E-20  3.7357E-21  1.8018E-22  8.6643E-24  4.1556E-25  1.9886E-26  9.4970E-28  4.5271E-29  2.1539E-30
       1.0225E-31  4.8436E-33  2.2904E-34  1.0824E-35  5.1153E-37  2.4163E-38  1.1394E-39  5.3608E-41  2.5191E-42  1.1843E-43
       5.5713E-45  2.6185E-46  1.2279E-47  5.7527E-49  2.6984E-50  1.2666E-51  5.9324E-53  2.7707E-54  1.2951E-55  6.0708E-57
       2.8434E-58  1.3261E-59  6.1807E-61  2.8907E-62  1.3518E-63  6.2995E-65  2.9374E-66  1.3720E-67  6.3877E-69  2.9766E-70
       1.3918E-71  6.4711E-73  3.0081E-74  1.4071E-75  6.5382E-77  3.0412E-78  1.4192E-79  6.5878E-81  3.0727E-82  1.4273E-83
       6.6439E-85  3.0908E-86  1.4365E-87  6.6834E-89  3.1053E-90  1.4445E-91  6.7099E-93  3.1190E-94  1.4491E-95  6.7338E-97
       3.1988E-98
  34   6.9853E-34  3.0875E-32  1.3905E-30  6.2314E-29  2.7738E-27  1.2259E-25  5.3825E-24  2.3521E-22  1.0253E-20  4.4699E-19
       1.9532E-17  8.5674E-16  3.7740E-14  1.6684E-12  7.3896E-11  3.2718E-09  1.4450E-07  6.3552E-06  2.7822E-04  1.2131E-02
       0.5277       22.95       1000.       46.31       24.87       1000.       45.54       2.077      9.5018E-02  4.3598E-03
       2.0044E-04  9.2190E-06  4.2355E-07  1.9424E-08  8.8943E-10  4.0708E-11  1.8644E-12  8.5500E-14  3.9252E-15  1.8027E-16
       8.2754E-18  3.7956E-19  1.7396E-20  7.9702E-22  3.6516E-23  1.6733E-24  7.6691E-26  3.5161E-27  1.6125E-28  7.3960E-30
       3.3909E-31  1.5536E-32  7.1161E-34  3.2618E-35  1.4971E-36  6.8765E-38  3.1569E-39  1.4477E-40  6.6396E-42  3.0499E-43
       1.4029E-44  6.4481E-46  2.9575E-47  1.3564E-48  6.2390E-50  2.8760E-51  1.3232E-52  6.0681E-54  2.7853E-55  1.2838E-56
       5.9207E-58  2.7208E-59  1.2496E-60  5.7581E-62  2.6536E-63  1.2199E-64  5.6205E-66  2.5938E-67  1.1918E-68  5.4843E-70
       2.5378E-71  1.1677E-72  5.3667E-74  2.4839E-75  1.1433E-76  5.2678E-78  2.4350E-79  1.1201E-80  5.1797E-82  2.3859E-83
       1.1016E-84  5.0849E-86  2.3454E-87  1.0833E-88  4.9975E-90  2.3088E-91  1.0654E-92  4.9210E-94  2.2723E-95  1.0496E-96
       4.9571E-98
  35   1.8372E-34  7.8088E-33  3.3747E-31  1.4464E-29  6.1354E-28  2.5738E-26  1.0682E-24  4.3930E-23  1.7940E-21  7.2915E-20
       2.9555E-18  1.1960E-16  4.8304E-15  1.9440E-13  7.7703E-12  3.0712E-10  1.1934E-08  4.5270E-07  1.6610E-05  5.8190E-04
       1.9012E-02  0.5483       11.58       1.057      0.6307       11.67       1.039      7.0835E-02  4.3264E-03  2.4893E-04
       1.3786E-05  7.4254E-07  3.9129E-08  2.0257E-09  1.0341E-10  5.2244E-12  2.6197E-13  1.3063E-14  6.4828E-16  3.2016E-17
       1.5732E-18  7.6926E-20  3.7452E-21  1.8169E-22  8.7889E-24  4.2408E-25  2.0418E-26  9.8123E-28  4.7076E-29  2.2545E-30
       1.0773E-31  5.1360E-33  2.4440E-34  1.1622E-35  5.5269E-37  2.6266E-38  1.2457E-39  5.8934E-41  2.7856E-42  1.3182E-43
       6.2433E-45  2.9515E-46  1.3901E-47  6.5360E-49  3.0799E-50  1.4545E-51  6.8542E-53  3.2163E-54  1.5086E-55  7.0978E-57
       3.3398E-58  1.5658E-59  7.3371E-61  3.4468E-62  1.6165E-63  7.5557E-65  3.5432E-66  1.6646E-67  7.7712E-69  3.6287E-70
       1.7054E-71  7.9697E-73  3.7157E-74  1.7433E-75  8.1347E-77  3.7989E-78  1.7787E-79  8.2843E-81  3.8777E-82  1.8075E-83
       8.4419E-85  3.9402E-86  1.8373E-87  8.5757E-89  3.9972E-90  1.8652E-91  8.6911E-93  4.0523E-94  1.8884E-95  8.8018E-97
       4.1939E-98
  36   2.5481E-35  1.0424E-33  4.3281E-32  1.7768E-30  7.1952E-29  2.8711E-27  1.1292E-25  4.3828E-24  1.6822E-22  6.3992E-21
       2.4170E-19  9.0714E-18  3.3813E-16  1.2487E-14  4.5494E-13  1.6254E-11  5.6404E-10  1.8800E-08  5.9283E-07  1.7316E-05
       4.5123E-04  9.6787E-03  0.1350      3.4811E-02  0.5000       11.56       1.093      7.6087E-02  4.6985E-03  2.7218E-04
       1.5142E-05  8.1829E-07  4.3219E-08  2.2407E-09  1.1446E-10  5.7819E-12  2.8969E-13  1.4425E-14  7.1453E-16  3.5208E-17
       1.7256E-18  8.4138E-20  4.0841E-21  1.9753E-22  9.5250E-24  4.5815E-25  2.1988E-26  1.0534E-27  5.0384E-29  2.4062E-30
       1.1468E-31  5.4533E-33  2.5887E-34  1.2283E-35  5.8299E-37  2.7662E-38  1.3098E-39  6.1847E-41  2.9169E-42  1.3775E-43
       6.5153E-45  3.0779E-46  1.4487E-47  6.8038E-49  3.2008E-50  1.5092E-51  7.1051E-53  3.3325E-54  1.5626E-55  7.3463E-57
       3.4521E-58  1.6163E-59  7.5716E-61  3.5588E-62  1.6685E-63  7.7872E-65  3.6486E-66  1.7155E-67  8.0107E-69  3.7372E-70
       1.7555E-71  8.2073E-73  3.8270E-74  1.7950E-75  8.3754E-77  3.9119E-78  1.8318E-79  8.5326E-81  3.9944E-82  1.8622E-83
       8.6994E-85  4.0613E-86  1.8942E-87  8.8439E-89  4.1235E-90  1.9247E-91  8.9718E-93  4.1848E-94  1.9510E-95  9.0970E-97
       4.3364E-98
  37   1.6103E-36  6.5256E-35  2.6812E-33  1.0874E-31  4.3419E-30  1.7044E-28  6.5773E-27  2.4979E-25  9.3518E-24  3.4584E-22
       1.2652E-20  4.5809E-19  1.6396E-17  5.7833E-16  2.0000E-14  6.7240E-13  2.1760E-11  6.7123E-10  1.9776E-08  5.5671E-07
       1.5222E-05  4.2644E-04  1.3533E-02  0.5218       22.81       1000.       45.58       2.081      9.5280E-02  4.3749E-03
       2.0127E-04  9.2620E-06  4.2568E-07  1.9523E-08  8.9384E-10  4.0893E-11  1.8718E-12  8.5776E-14  3.9347E-15  1.8054E-16
       8.2793E-18  3.7935E-19  1.7369E-20  7.9506E-22  3.6394E-23  1.6662E-24  7.6302E-26  3.4956E-27  1.6023E-28  7.3472E-30
       3.3681E-31  1.5428E-32  7.0651E-34  3.2384E-35  1.4871E-36  6.8372E-38  3.1409E-39  1.4399E-40  6.5967E-42  3.0280E-43
       1.3937E-44  6.4163E-46  2.9470E-47  1.3518E-48  6.2130E-50  2.8628E-51  1.3178E-52  6.0511E-54  2.7816E-55  1.2831E-56
       5.9136E-58  2.7150E-59  1.2485E-60  5.7723E-62  2.6632E-63  1.2219E-64  5.6294E-66  2.6076E-67  1.2006E-68  5.5186E-70
       2.5547E-71  1.1785E-72  5.4246E-74  2.5117E-75  1.1573E-76  5.3408E-78  2.4720E-79  1.1385E-80  5.2711E-82  2.4313E-83
       1.1241E-84  5.1958E-86  2.3999E-87  1.1100E-88  5.1286E-90  2.3729E-91  1.0967E-92  5.0731E-94  2.3462E-95  1.0856E-96
       5.1351E-98
  38   7.3665E-38  2.9755E-36  1.2181E-34  4.9179E-33  1.9526E-31  7.6124E-30  2.9134E-28  1.0956E-26  4.0552E-25  1.4802E-23
       5.3360E-22  1.9005E-20  6.6789E-19  2.3086E-17  7.8076E-16  2.5586E-14  8.0612E-13  2.4471E-11  7.2566E-10  2.1363E-08
       6.3692E-07  1.9595E-05  6.2207E-04  1.9631E-02  0.5626       11.58       1.018      6.8836E-02  4.1752E-03  2.3873E-04
       1.3143E-05  7.0392E-07  3.6885E-08  1.8986E-09  9.6359E-11  4.8392E-12  2.4121E-13  1.1957E-14  5.8986E-16  2.8961E-17
       1.4148E-18  6.8788E-20  3.3305E-21  1.6071E-22  7.7334E-24  3.7123E-25  1.7782E-26  8.5027E-28  4.0602E-29  1.9361E-30
       9.2130E-32  4.3730E-33  2.0714E-34  9.8063E-36  4.6455E-37  2.2011E-38  1.0411E-39  4.9084E-41  2.3097E-42  1.0876E-43
       5.1288E-45  2.4166E-46  1.1351E-47  5.3233E-49  2.5008E-50  1.1767E-51  5.5225E-53  2.5824E-54  1.2091E-55  5.6834E-57
       2.6672E-58  1.2443E-59  5.8089E-61  2.7289E-62  1.2796E-63  5.9576E-65  2.7816E-66  1.3061E-67  6.0973E-69  2.8393E-70
       1.3304E-71  6.2106E-73  2.8927E-74  1.3547E-75  6.3098E-77  2.9428E-78  1.3762E-79  6.4012E-81  2.9925E-82  1.3933E-83
       6.5007E-85  3.0312E-86  1.4121E-87  6.5859E-89  3.0674E-90  1.4303E-91  6.6610E-93  3.1041E-94  1.4459E-95  6.7365E-97
       3.2088E-98
  39   7.1353E-39  2.7862E-37  1.1060E-35  4.3400E-34  1.6781E-32  6.3811E-31  2.3851E-29  8.7685E-28  3.1752E-26  1.1345E-24
       4.0048E-23  1.3974E-21  4.8152E-20  1.6340E-18  5.4366E-17  1.7660E-15  5.5756E-14  1.7145E-12  5.1592E-11  1.5235E-09
       4.4118E-08  1.2459E-06  3.3759E-05  8.4566E-04  1.8070E-02  0.2656      3.6338E-02  3.3270E-03  2.5455E-04  1.7570E-05
       1.1329E-06  6.9506E-08  4.1015E-09  2.3457E-10  1.3084E-11  7.1571E-13  3.8567E-14  2.0536E-15  1.0823E-16  5.6497E-18
       2.9219E-19  1.4983E-20  7.6264E-22  3.8579E-23  1.9413E-24  9.7229E-26  4.8489E-27  2.4093E-28  1.1935E-29  5.8955E-31
       2.9023E-32  1.4233E-33  6.9555E-35  3.3926E-36  1.6538E-37  8.0551E-39  3.9127E-40  1.8930E-41  9.1341E-43  4.4071E-44
       2.1276E-45  1.0251E-46  4.9179E-48  2.3537E-49  1.1284E-50  5.4187E-52  2.5930E-53  1.2342E-54  5.8772E-56  2.8114E-57
       1.3432E-58  6.3714E-60  3.0195E-61  1.4397E-62  6.8569E-64  3.2409E-65  1.5341E-66  7.2995E-68  3.4539E-69  1.6297E-70
       7.7321E-72  3.6531E-73  1.7218E-74  8.1572E-76  3.8421E-77  1.8114E-78  8.5606E-80  4.0230E-81  1.8996E-82  8.9301E-84
       4.2060E-85  1.9792E-86  9.3028E-88  4.3763E-89  2.0555E-90  9.6634E-92  4.5360E-93  2.1302E-94  9.9969E-96  4.6916E-97
       2.2510E-98
  40   5.4201E-38  2.1387E-36  8.5874E-35  3.4144E-33  1.3405E-31  5.1884E-30  1.9788E-28  7.4423E-27  2.7641E-25  1.0155E-23
       3.6951E-22  1.3325E-20  4.7579E-19  1.6785E-17  5.8477E-16  2.0109E-14  6.7968E-13  2.2487E-11  7.2606E-10  2.2848E-08
       7.0118E-07  2.1032E-05  6.1774E-04  1.7697E-02  0.4819       11.44       1.087      7.5572E-02  4.6516E-03  2.6836E-04
       1.4862E-05  7.9924E-07  4.1995E-08  2.1653E-09  1.0997E-10  5.5214E-12  2.7494E-13  1.3606E-14  6.6980E-16  3.2803E-17
       1.5981E-18  7.7470E-20  3.7397E-21  1.7995E-22  8.6362E-24  4.1353E-25  1.9760E-26  9.4261E-28  4.4912E-29  2.1376E-30
       1.0158E-31  4.8166E-33  2.2791E-34  1.0775E-35  5.0968E-37  2.4114E-38  1.1390E-39  5.3645E-41  2.5223E-42  1.1872E-43
       5.5977E-45  2.6363E-46  1.2366E-47  5.7879E-49  2.7162E-50  1.2787E-51  6.0057E-53  2.8053E-54  1.3105E-55  6.1551E-57
       2.8925E-58  1.3506E-59  6.2962E-61  2.9531E-62  1.3856E-63  6.4574E-65  3.0132E-66  1.4134E-67  6.5985E-69  3.0737E-70
       1.4399E-71  6.7188E-73  3.1289E-74  1.4652E-75  6.8233E-77  3.1817E-78  1.4876E-79  6.9183E-81  3.2337E-82  1.5053E-83
       7.0221E-85  3.2738E-86  1.5248E-87  7.1101E-89  3.3108E-90  1.5435E-91  7.1862E-93  3.3480E-94  1.5590E-95  7.2614E-97
       3.4578E-98
  41   5.6471E-37  2.3141E-35  9.6489E-34  3.9876E-32  1.6291E-30  6.5698E-29  2.6150E-27  1.0282E-25  4.0002E-24  1.5425E-22
       5.9039E-21  2.2442E-19  8.4647E-18  3.1619E-16  1.1699E-14  4.2769E-13  1.5378E-11  5.4142E-10  1.8595E-08  6.2156E-07
       2.0226E-05  6.4375E-04  2.0318E-02  0.6565       22.87       1000.       45.66       2.087      9.5653E-02  4.3961E-03
       2.0242E-04  9.3222E-06  4.2874E-07  1.9675E-08  9.0107E-10  4.1232E-11  1.8875E-12  8.6508E-14  3.9691E-15  1.8216E-16
       8.3570E-18  3.8310E-19  1.7555E-20  8.0448E-22  3.6880E-23  1.6913E-24  7.7579E-26  3.5600E-27  1.6349E-28  7.5141E-30
       3.4543E-31  1.5870E-32  7.2868E-34  3.3474E-35  1.5404E-36  7.0983E-38  3.2689E-39  1.5022E-40  6.8970E-42  3.1739E-43
       1.4654E-44  6.7668E-46  3.1134E-47  1.4292E-48  6.5810E-50  3.0446E-51  1.4073E-52  6.4719E-54  2.9748E-55  1.3752E-56
       6.3708E-58  2.9357E-59  1.3503E-60  6.2469E-62  2.8935E-63  1.3327E-64  6.1466E-66  2.8496E-67  1.3156E-68  6.0634E-70
       2.8111E-71  1.2986E-72  5.9888E-74  2.7781E-75  1.2821E-76  5.9254E-78  2.7467E-79  1.2669E-80  5.8740E-82  2.7131E-83
       1.2560E-84  5.8128E-86  2.6881E-87  1.2447E-88  5.7571E-90  2.6663E-91  1.2335E-92  5.7108E-94  2.6433E-95  1.2239E-96
       5.7936E-98
  42   4.1836E-36  1.7850E-34  7.7507E-33  3.3400E-31  1.4250E-29  6.0129E-28  2.5095E-26  1.0372E-24  4.2529E-23  1.7337E-21
       7.0384E-20  2.8480E-18  1.1481E-16  4.6055E-15  1.8370E-13  7.2608E-12  2.8307E-10  1.0830E-08  4.0438E-07  1.4636E-05
       5.0830E-04  1.6628E-02  0.4913       11.54       2.146       23.13       2.108      0.1444      8.8203E-03  5.0625E-04
       2.7931E-05  1.4975E-06  7.8486E-08  4.0380E-09  2.0469E-10  1.0261E-11  5.1025E-13  2.5224E-14  1.2408E-15  6.0729E-17
       2.9573E-18  1.4331E-19  6.9170E-21  3.3282E-22  1.5975E-23  7.6503E-25  3.6556E-26  1.7435E-27  8.3049E-29  3.9516E-30
       1.8773E-31  8.8983E-33  4.2082E-34  1.9883E-35  9.3987E-37  4.4446E-38  2.0983E-39  9.8708E-41  4.6321E-42  2.1759E-43
       1.0250E-44  4.8281E-46  2.2648E-47  1.0585E-48  4.9556E-50  2.3293E-51  1.0942E-52  5.1123E-54  2.3846E-55  1.1172E-56
       5.2437E-58  2.4484E-59  1.1406E-60  5.3386E-62  2.5003E-63  1.1642E-64  5.4274E-66  2.5416E-67  1.1846E-68  5.5108E-70
       2.5781E-71  1.2013E-72  5.5858E-74  2.6119E-75  1.2147E-76  5.6558E-78  2.6406E-79  1.2263E-80  5.7237E-82  2.6606E-83
       1.2393E-84  5.7695E-86  2.6834E-87  1.2494E-88  5.8094E-90  2.7043E-91  1.2572E-92  5.8487E-94  2.7196E-95  1.2648E-96
       6.0133E-98
  43   1.6821E-35  7.4835E-34  3.3907E-32  1.5274E-30  6.8270E-29  3.0256E-27  1.3302E-25  5.8118E-24  2.5292E-22  1.0992E-20
       4.7831E-19  2.0875E-17  9.1444E-16  4.0194E-14  1.7703E-12  7.7964E-11  3.4260E-09  1.4997E-07  6.5344E-06  2.8354E-04
       1.2272E-02  0.5309       23.00       1000.       68.66       1000.       45.68       2.088      9.5679E-02  4.3952E-03
       2.0224E-04  9.3065E-06  4.2762E-07  1.9603E-08  8.9679E-10  4.0986E-11  1.8739E-12  8.5782E-14  3.9313E-15  1.8024E-16
       8.2604E-18  3.7832E-19  1.7321E-20  7.9325E-22  3.6349E-23  1.6664E-24  7.6413E-26  3.5051E-27  1.6090E-28  7.3920E-30
       3.3971E-31  1.5602E-32  7.1592E-34  3.2860E-35  1.5111E-36  6.9627E-38  3.2084E-39  1.4751E-40  6.7685E-42  3.1098E-43
       1.4338E-44  6.6217E-46  3.0504E-47  1.4012E-48  6.4462E-50  2.9782E-51  1.3768E-52  6.3407E-54  2.9166E-55  1.3473E-56
       6.2372E-58  2.8759E-59  1.3240E-60  6.1258E-62  2.8364E-63  1.3067E-64  6.0302E-66  2.7965E-67  1.2912E-68  5.9531E-70
       2.7613E-71  1.2762E-72  5.8880E-74  2.7327E-75  1.2618E-76  5.8353E-78  2.7067E-79  1.2492E-80  5.7960E-82  2.6790E-83
       1.2412E-84  5.7482E-86  2.6603E-87  1.2329E-88  5.7068E-90  2.6453E-91  1.2248E-92  5.6759E-94  2.6296E-95  1.2187E-96
       5.7747E-98
  44   4.7149E-36  2.0232E-34  8.8283E-33  3.8203E-31  1.6357E-29  6.9220E-28  2.8963E-26  1.1999E-24  4.9335E-23  2.0180E-21
       8.2325E-20  3.3551E-18  1.3664E-16  5.5504E-15  2.2401E-13  8.9452E-12  3.5171E-10  1.3544E-08  5.0776E-07  1.8391E-05
       6.3572E-04  2.0475E-02  0.5795       11.71       1.602       11.69       1.017      6.8601E-02  4.1565E-03  2.3753E-04
       1.3074E-05  7.0015E-07  3.6683E-08  1.8877E-09  9.5749E-11  4.8044E-12  2.3922E-13  1.1844E-14  5.8365E-16  2.8622E-17
       1.3966E-18  6.7818E-20  3.2801E-21  1.5817E-22  7.6092E-24  3.6524E-25  1.7491E-26  8.3590E-28  3.9891E-29  1.9018E-30
       9.0542E-32  4.3007E-33  2.0375E-34  9.6381E-36  4.5608E-37  2.1604E-38  1.0228E-39  4.8277E-41  2.2718E-42  1.0687E-43
       5.0379E-45  2.3770E-46  1.1185E-47  5.2461E-49  2.4614E-50  1.1582E-51  5.4491E-53  2.5536E-54  1.1949E-55  5.6099E-57
       2.6367E-58  1.2338E-59  5.7638E-61  2.7046E-62  1.2691E-63  5.9223E-65  2.7678E-66  1.2994E-67  6.0707E-69  2.8309E-70
       1.3277E-71  6.2024E-73  2.8915E-74  1.3556E-75  6.3206E-77  2.9508E-78  1.3813E-79  6.4321E-81  3.0103E-82  1.4031E-83
       6.5535E-85  3.0592E-86  1.4268E-87  6.6615E-89  3.1061E-90  1.4500E-91  6.7600E-93  3.1538E-94  1.4707E-95  6.8596E-97
       3.2710E-98
  45   6.9478E-37  2.8772E-35  1.2101E-33  5.0363E-32  2.0686E-30  8.3752E-29  3.3427E-27  1.3168E-25  5.1313E-24  1.9828E-22
       7.6161E-21  2.9129E-19  1.1080E-17  4.1792E-16  1.5540E-14  5.6648E-13  2.0103E-11  6.8883E-10  2.2567E-08  6.9742E-07
       1.9910E-05  5.0509E-04  1.0456E-02  0.1375      2.8064E-02  0.1372      1.7538E-02  1.5511E-03  1.1621E-04  7.9113E-06
       5.0541E-07  3.0812E-08  1.8105E-09  1.0325E-10  5.7487E-12  3.1416E-13  1.6926E-14  9.0178E-16  4.7584E-17  2.4879E-18
       1.2891E-19  6.6242E-21  3.3797E-22  1.7144E-23  8.6550E-25  4.3494E-26  2.1758E-27  1.0840E-28  5.3825E-30  2.6657E-31
       1.3166E-32  6.4801E-34  3.1766E-35  1.5524E-36  7.5766E-38  3.6971E-39  1.8019E-40  8.7536E-42  4.2373E-43  2.0480E-44
       9.9052E-46  4.7895E-47  2.3088E-48  1.1092E-49  5.3270E-51  2.5628E-52  1.2315E-53  5.8922E-55  2.8147E-56  1.3483E-57
       6.4596E-59  3.0791E-60  1.4651E-61  6.9998E-63  3.3424E-64  1.5862E-65  7.5374E-67  3.5966E-68  1.7070E-69  8.0842E-71
       3.8494E-72  1.8249E-73  8.6311E-75  4.1039E-76  1.9400E-77  9.1800E-79  4.3543E-80  2.0539E-81  9.7342E-83  4.5933E-84
       2.1716E-85  1.0258E-86  4.8397E-88  2.2855E-89  1.0776E-90  5.0856E-92  2.3964E-93  1.1298E-94  5.3230E-96  2.5079E-97
       1.2080E-98
  46   4.5597E-38  1.8714E-36  7.7961E-35  3.2101E-33  1.3027E-31  5.2024E-30  2.0441E-28  7.9109E-27  3.0211E-25  1.1412E-23
       4.2727E-22  1.5863E-20  5.8281E-19  2.1071E-17  7.4442E-16  2.5486E-14  8.3659E-13  2.5997E-11  7.5425E-10  2.0257E-08
       4.9046E-07  1.0215E-05  1.6611E-04  1.6220E-03  4.3754E-04  1.6169E-03  2.7131E-04  2.9615E-05  2.6374E-06  2.0800E-07
       1.5104E-08  1.0315E-09  6.7106E-11  4.1972E-12  2.5432E-13  1.5028E-14  8.7069E-16  4.9654E-17  2.7928E-18  1.5506E-19
       8.5025E-21  4.6091E-22  2.4739E-23  1.3170E-24  6.9620E-26  3.6563E-27  1.9079E-28  9.8955E-30  5.1063E-31  2.6241E-32
       1.3433E-33  6.8463E-35  3.4721E-36  1.7532E-37  8.8269E-39  4.4363E-40  2.2246E-41  1.1116E-42  5.5338E-44  2.7491E-45
       1.3650E-46  6.7665E-48  3.3417E-49  1.6444E-50  8.0882E-52  3.9817E-53  1.9557E-54  9.5581E-56  4.6633E-57  2.2809E-58
       1.1150E-59  5.4190E-61  2.6281E-62  1.2796E-63  6.2234E-65  3.0068E-66  1.4541E-67  7.0593E-69  3.4073E-70  1.6405E-71
       7.9390E-73  3.8236E-74  1.8367E-75  8.8672E-77  4.2546E-78  2.0430E-79  9.8302E-81  4.7025E-82  2.2598E-83  1.0809E-84
       5.1787E-86  2.4784E-87  1.1845E-88  5.6647E-90  2.7043E-91  1.2919E-92  6.1614E-94  2.9393E-95  1.4010E-96  6.6768E-98
       3.2532E-99
  47   2.0903E-39  8.5446E-38  3.5448E-36  1.4526E-34  5.8619E-33  2.3255E-31  9.0665E-30  3.4769E-28  1.3139E-26  4.9029E-25
       1.8093E-23  6.5965E-22  2.3678E-20  8.3089E-19  2.8261E-17  9.2089E-16  2.8317E-14  8.0725E-13  2.1082E-11  4.9952E-10
       1.0472E-08  1.8452E-07  2.4671E-06  1.9192E-05  6.4032E-06  1.9126E-05  3.9535E-06  5.1253E-07  5.2823E-08  4.7311E-09
       3.8455E-10  2.9057E-11  2.0719E-12  1.4093E-13  9.2269E-15  5.8593E-16  3.6315E-17  2.2063E-18  1.3173E-19  7.7383E-21
       4.4758E-22  2.5520E-23  1.4371E-24  8.0093E-26  4.4241E-27  2.4236E-28  1.3170E-29  7.1011E-31  3.8028E-32  2.0249E-33
       1.0728E-34  5.6544E-36  2.9641E-37  1.5458E-38  8.0282E-40  4.1553E-41  2.1427E-42  1.1002E-43  5.6266E-45  2.8712E-46
       1.4632E-47  7.4356E-49  3.7606E-50  1.8944E-51  9.5382E-53  4.8044E-54  2.4123E-55  1.2042E-56  5.9997E-58  2.9962E-59
       1.4946E-60  7.4079E-62  3.6624E-63  1.8174E-64  9.0045E-66  4.4299E-67  2.1808E-68  1.0774E-69  5.2894E-71  2.5897E-72
       1.2741E-73  6.2356E-75  3.0432E-76  1.4922E-77  7.2693E-79  3.5433E-80  1.7302E-81  8.3975E-83  4.0932E-84  1.9854E-85
       9.6443E-87  4.6784E-88  2.2659E-89  1.0979E-90  5.3095E-92  2.5690E-93  1.2406E-94  5.9916E-96  2.8907E-97  1.3942E-98
       6.8752-100
  48   8.0099E-41  3.2658E-39  1.3513E-37  5.5205E-36  2.2197E-34  8.7680E-33  3.4009E-31  1.2964E-29  4.8644E-28  1.7993E-26
       6.5635E-25  2.3571E-23  8.2880E-22  2.8319E-20  9.3012E-19  2.8923E-17  8.3495E-16  2.1962E-14  5.2054E-13  1.1015E-11
       2.0324E-10  3.0986E-09  3.5154E-08  2.2779E-07  9.0052E-08  2.2701E-07  5.5470E-08  8.3143E-09  9.7260E-10  9.7458E-11
       8.7610E-12  7.2529E-13  5.6221E-14  4.1302E-15  2.9044E-16  1.9718E-17  1.3012E-18  8.3884E-20  5.2973E-21  3.2816E-22
       1.9962E-23  1.1940E-24  7.0374E-26  4.0965E-27  2.3594E-28  1.3457E-29  7.6035E-31  4.2567E-32  2.3631E-33  1.3022E-34
       7.1301E-36  3.8804E-37  2.0995E-38  1.1298E-39  6.0503E-41  3.2248E-42  1.7097E-43  9.0140E-45  4.7314E-46  2.4776E-47
       1.2951E-48  6.7450E-50  3.4922E-51  1.7998E-52  9.2693E-54  4.7748E-55  2.4502E-56  1.2491E-57  6.3531E-59  3.2382E-60
       1.6481E-61  8.3291E-63  4.1972E-64  2.1223E-65  1.0711E-66  5.3651E-68  2.6884E-69  1.3514E-70  6.7486E-72  3.3599E-73
       1.6803E-74  8.3572E-76  4.1438E-77  2.0637E-78  1.0208E-79  5.0514E-81  2.5034E-82  1.2328E-83  6.0959E-85  2.9988E-86
       1.4771E-87  7.2638E-89  3.5658E-90  1.7509E-91  8.5782E-93  4.2043E-94  2.0562E-95  1.0055E-96  4.9114E-98  2.3976E-99
       1.1969-100
  49   2.7626E-42  1.1242E-40  4.6424E-39  1.8924E-37  7.5894E-36  2.9887E-34  1.1550E-32  4.3823E-31  1.6343E-29  5.9960E-28
       2.1628E-26  7.6458E-25  2.6335E-23  8.7583E-22  2.7749E-20  8.2194E-19  2.2269E-17  5.4190E-16  1.1727E-14  2.2387E-13
       3.6839E-12  4.9441E-11  4.8700E-10  2.7112E-09  1.2323E-09  2.7024E-09  7.5820E-10  1.2882E-10  1.6850E-11  1.8670E-12
       1.8385E-13  1.6543E-14  1.3846E-15  1.0921E-16  8.2071E-18  5.9298E-19  4.1502E-20  2.8286E-21  1.8832E-22  1.2267E-23
       7.8276E-25  4.9000E-26  3.0161E-27  1.8300E-28  1.0968E-29  6.5019E-31  3.8139E-32  2.2143E-33  1.2731E-34  7.2546E-36
       4.1007E-37  2.3011E-38  1.2830E-39  7.1133E-41  3.9240E-42  2.1529E-43  1.1733E-44  6.3505E-46  3.4189E-47  1.8356E-48
       9.8356E-50  5.2472E-51  2.7803E-52  1.4653E-53  7.7149E-55  4.0618E-56  2.1293E-57  1.1083E-58  5.7523E-60  2.9912E-61
       1.5526E-62  7.9987E-64  4.1073E-65  2.1157E-66  1.0873E-67  5.5438E-69  2.8270E-70  1.4457E-71  7.3416E-73  3.7161E-74
       1.8890E-75  9.5460E-77  4.8083E-78  2.4320E-79  1.2214E-80  6.1354E-82  3.0857E-83  1.5418E-84  7.7338E-86  3.8584E-87
       1.9270E-88  9.6070E-90  4.7799E-91  2.3783E-92  1.1806E-93  5.8612E-95  2.9031E-96  1.4376E-97  7.1088E-99  3.5129-100
       1.7753-101
  50   8.9187E-44  3.6239E-42  1.4943E-40  6.0808E-39  2.4335E-37  9.5575E-36  3.6806E-34  1.3900E-32  5.1502E-31  1.8723E-29
       6.6679E-28  2.3175E-26  7.8076E-25  2.5219E-23  7.6842E-22  2.1620E-20  5.4923E-19  1.2389E-17  2.4611E-16  4.2752E-15
       6.3415E-14  7.5952E-13  6.6106E-12  3.2348E-11  1.6530E-11  3.2256E-11  1.0167E-11  1.9281E-12  2.7873E-13  3.3825E-14
       3.6204E-15  3.5172E-16  3.1603E-17  2.6632E-18  2.1293E-19  1.6310E-20  1.2063E-21  8.6648E-23  6.0642E-24  4.1431E-25
       2.7667E-26  1.8088E-27  1.1605E-28  7.3262E-30  4.5614E-31  2.8054E-32  1.7057E-33  1.0257E-34  6.1022E-36  3.5935E-37
       2.0958E-38  1.2116E-39  6.9513E-41  3.9645E-42  2.2495E-43  1.2691E-44  7.1068E-46  3.9475E-47  2.1788E-48  1.1986E-49
       6.5789E-51  3.5935E-52  1.9481E-53  1.0497E-54  5.6476E-56  3.0375E-57  1.6260E-58  8.6380E-60  4.5737E-61  2.4255E-62
       1.2834E-63  6.7377E-65  3.5244E-66  1.8488E-67  9.6717E-69  5.0180E-70  2.6033E-71  1.3540E-72  6.9905E-74  3.5966E-75
       1.8579E-76  9.5380E-78  4.8796E-79  2.5062E-80  1.2778E-81  6.5146E-83  3.3247E-84  1.6853E-85  8.5743E-87  4.3379E-88
       2.1966E-89  1.1100E-90  5.5972E-92  2.8219E-93  1.4191E-94  7.1360E-96  3.5795E-97  1.7947E-98  8.9848-100  4.4942-101
       2.2992-102
  51   2.7568E-45  1.1190E-43  4.6085E-42  1.8723E-40  7.4765E-39  2.9275E-37  1.1227E-35  4.2155E-34  1.5496E-32  5.5731E-31
       1.9565E-29  6.6739E-28  2.1939E-26  6.8603E-25  2.0029E-23  5.3377E-22  1.2707E-20  2.6629E-19  4.8807E-18  7.7702E-17
       1.0483E-15  1.1330E-14  8.8355E-14  3.8678E-13  2.1835E-13  3.8587E-13  1.3435E-13  2.8093E-14  4.4453E-15  5.8627E-16
       6.7754E-17  7.0670E-18  6.7836E-19  6.0811E-20  5.1529E-21  4.1699E-22  3.2494E-23  2.4527E-24  1.7998E-25  1.2866E-26
       8.9727E-28  6.1154E-29  4.0830E-30  2.6778E-31  1.7293E-32  1.1017E-33  6.9319E-35  4.3110E-36  2.6510E-37  1.6123E-38
       9.6983E-40  5.7733E-41  3.4061E-42  1.9958E-43  1.1631E-44  6.7381E-46  3.8732E-47  2.2066E-48  1.2480E-49  7.0312E-51
       3.9506E-52  2.2083E-53  1.2244E-54  6.7433E-56  3.7064E-57  2.0357E-58  1.1124E-59  6.0293E-61  3.2559E-62  1.7603E-63
       9.4922E-65  5.0760E-66  2.7038E-67  1.4439E-68  7.6868E-70  4.0570E-71  2.1406E-72  1.1320E-73  5.9405E-75  3.1059E-76
       1.6301E-77  8.4996E-79  4.4156E-80  2.3025E-81  1.1915E-82  6.1647E-84  3.1918E-85  1.6411E-86  8.4676E-88  4.3434E-89
       2.2295E-90  1.1419E-91  5.8345E-93  2.9802E-94  1.5181E-95  7.7315E-97  3.9271E-98  1.9936E-99  1.0103-100  5.1147-102
       2.6487-103
  52   8.2592E-47  3.3495E-45  1.3779E-43  5.5878E-42  2.2256E-40  8.6832E-39  3.3133E-37  1.2356E-35  4.5000E-34  1.5985E-32
       5.5221E-31  1.8444E-29  5.8980E-28  1.7788E-26  4.9583E-25  1.2488E-23  2.7861E-22  5.4379E-21  9.2389E-20  1.3564E-18
       1.6771E-17  1.6509E-16  1.1665E-15  4.6328E-15  2.8492E-15  4.6247E-15  1.7548E-15  4.0053E-16  6.8826E-17  9.8001E-18
       1.2161E-18  1.3553E-19  1.3839E-20  1.3147E-21  1.1767E-22  1.0030E-23  8.2117E-25  6.4973E-26  4.9873E-27  3.7223E-28
       2.7057E-29  1.9192E-30  1.3315E-31  9.0603E-33  6.0613E-34  3.9946E-35  2.5973E-36  1.6680E-37  1.0587E-38  6.6432E-40
       4.1194E-41  2.5246E-42  1.5312E-43  9.2113E-45  5.5073E-46  3.2722E-47  1.9285E-48  1.1259E-49  6.5218E-51  3.7606E-52
       2.1616E-53  1.2357E-54  7.0038E-56  3.9414E-57  2.2125E-58  1.2406E-59  6.9172E-61  3.8240E-62  2.1054E-63  1.1602E-64
       6.3732E-66  3.4705E-67  1.8819E-68  1.0228E-69  5.5394E-71  2.9733E-72  1.5952E-73  8.5752E-75  4.5728E-76  2.4291E-77
       1.2950E-78  6.8565E-80  3.6165E-81  1.9141E-82  1.0051E-83  5.2764E-85  2.7711E-86  1.4449E-87  7.5591E-89  3.9306E-90
       2.0449E-91  1.0613E-92  5.4942E-94  2.8428E-95  1.4667E-96  7.5642E-98  3.8901E-99  1.9992-100  1.0255-101  5.2539-103
       2.7539-104
  53   2.4171E-48  9.7941E-47  4.0235E-45  1.6284E-43  6.4662E-42  2.5120E-40  9.5289E-39  3.5252E-37  1.2703E-35  4.4496E-34
       1.5092E-32  4.9222E-31  1.5259E-29  4.4217E-28  1.1731E-26  2.7884E-25  5.8337E-24  1.0634E-22  1.6818E-21  2.2893E-20
       2.6109E-19  2.3592E-18  1.5247E-17  5.5570E-17  3.6806E-17  5.5514E-17  2.2702E-17  5.6093E-18  1.0397E-18  1.5895E-19
       2.1079E-20  2.4994E-21  2.7049E-22  2.7141E-23  2.5582E-24  2.2905E-25  1.9654E-26  1.6264E-27  1.3031E-28  1.0135E-29
       7.6646E-31  5.6487E-32  4.0669E-33  2.8680E-34  1.9857E-35  1.3524E-36  9.0755E-38  6.0099E-39  3.9317E-40  2.5418E-41
       1.6233E-42  1.0237E-43  6.3813E-45  3.9406E-46  2.4159E-47  1.4709E-48  8.8799E-50  5.3083E-51  3.1467E-52  1.8559E-53
       1.0907E-54  6.3722E-56  3.6899E-57  2.1207E-58  1.2153E-59  6.9538E-61  3.9548E-62  2.2291E-63  1.2509E-64  7.0227E-66
       3.9290E-67  2.1780E-68  1.2020E-69  6.6467E-71  3.6613E-72  1.9982E-73  1.0898E-74  5.9540E-76  3.2258E-77  1.7406E-78
       9.4237E-80  5.0657E-81  2.7121E-82  1.4568E-83  7.7609E-85  4.1326E-86  2.2011E-87  1.1637E-88  6.1715E-90  3.2525E-91
       1.7148E-92  9.0168E-94  4.7286E-95  2.4781E-96  1.2947E-97  6.7611E-99  3.5201-100  1.8311-101  9.5056-103  4.9283-104
       2.6143-105
  54   6.9469E-50  2.8123E-48  1.1535E-46  4.6573E-45  1.8429E-43  7.1239E-42  2.6840E-40  9.8388E-39  3.5026E-37  1.2076E-35
       4.0118E-34  1.2736E-32  3.8134E-31  1.0581E-29  2.6653E-28  5.9744E-27  1.1735E-25  2.0033E-24  2.9608E-23  3.7542E-22
       3.9718E-21  3.3163E-20  1.9759E-19  6.6728E-19  4.7145E-19  6.6721E-19  2.9136E-19  7.7379E-20  1.5382E-20  2.5127E-21
       3.5463E-22  4.4579E-23  5.0963E-24  5.3850E-25  5.3310E-26  5.0017E-27  4.4880E-28  3.8764E-29  3.2361E-30  2.6178E-31
       2.0563E-32  1.5722E-33  1.1731E-34  8.5644E-36  6.1316E-37  4.3123E-38  2.9841E-39  2.0354E-40  1.3705E-41  9.1156E-43
       5.9876E-44  3.8821E-45  2.4860E-46  1.5755E-47  9.9022E-49  6.1758E-50  3.8166E-51  2.3345E-52  1.4154E-53  8.5347E-55
       5.1255E-56  3.0585E-57  1.8083E-58  1.0607E-59  6.2026E-61  3.6199E-62  2.0989E-63  1.2056E-64  6.8921E-66  3.9409E-67
       2.2447E-68  1.2663E-69  7.1103E-71  3.9996E-72  2.2403E-73  1.2429E-74  6.8897E-76  3.8249E-77  2.1049E-78  1.1535E-79
       6.3410E-81  3.4598E-82  1.8799E-83  1.0245E-84  5.5363E-86  2.9898E-87  1.6146E-88  8.6536E-90  4.6517E-91  2.4843E-92
       1.3271E-93  7.0691E-95  3.7549E-96  1.9929E-97  1.0543E-98  5.5736-100  2.9373-101  1.5464-102  8.1235-104  4.2613-105
       2.2874-106
  55   1.9685E-51  7.9604E-50  3.2593E-48  1.3122E-46  5.1712E-45  1.9876E-43  7.4305E-42  2.6956E-40  9.4650E-39  3.2048E-37
       1.0400E-35  3.2031E-34  9.2311E-33  2.4452E-31  5.8378E-30  1.2339E-28  2.2789E-27  3.6528E-26  5.0627E-25  6.0045E-24
       5.9221E-23  4.5959E-22  2.5419E-21  8.0185E-21  5.9948E-21  8.0266E-21  3.7139E-21  1.0538E-21  2.2355E-22  3.8856E-23
       5.8150E-24  7.7243E-25  9.3013E-26  1.0323E-26  1.0707E-27  1.0503E-28  9.8361E-30  8.8515E-31  7.6859E-32  6.4569E-33
       5.2600E-34  4.1659E-35  3.2169E-36  2.4287E-37  1.7964E-38  1.3038E-39  9.2986E-41  6.5279E-42  4.5191E-43  3.0883E-44
       2.0835E-45  1.3871E-46  9.1170E-48  5.9266E-49  3.8179E-50  2.4385E-51  1.5422E-52  9.6484E-54  5.9807E-55  3.6854E-56
       2.2607E-57  1.3773E-58  8.3098E-60  4.9725E-61  2.9652E-62  1.7641E-63  1.0423E-64  6.0981E-66  3.5500E-67  2.0666E-68
       1.1979E-69  6.8753E-71  3.9266E-72  2.2462E-73  1.2791E-74  7.2119E-76  4.0623E-77  2.2911E-78  1.2804E-79  7.1245E-81
       3.9758E-82  2.2014E-83  1.2136E-84  6.7094E-86  3.6770E-87  2.0135E-88  1.1023E-89  5.9883E-91  3.2622E-92  1.7652E-93
       9.5531E-95  5.1544E-96  2.7727E-97  1.4901E-98  7.9806-100  4.2708-101  2.2779-102  1.2136-103  6.4505-105  3.4232-106
       1.8592-107
  56   5.5155E-53  2.2274E-51  9.1002E-50  3.6519E-48  1.4325E-46  5.4700E-45  2.0269E-43  7.2665E-42  2.5120E-40  8.3338E-39
       2.6339E-37  7.8434E-36  2.1686E-34  5.4707E-33  1.2366E-31  2.4656E-30  4.2888E-29  6.4716E-28  8.4374E-27  9.3949E-26
       8.6757E-25  6.2901E-24  3.2486E-23  9.6399E-23  7.5742E-23  9.6630E-23  4.7063E-23  1.4191E-23  3.1988E-24  5.8942E-25
       9.3237E-26  1.3050E-26  1.6510E-27  1.9198E-28  2.0818E-29  2.1310E-30  2.0790E-31  1.9460E-32  1.7550E-33  1.5290E-34
       1.2900E-35  1.0569E-36  8.4352E-38  6.5775E-39  5.0214E-40  3.7582E-41  2.7608E-42  1.9939E-43  1.4183E-44  9.9490E-46
       6.8855E-47  4.7009E-48  3.1678E-49  2.1106E-50  1.3928E-51  9.1072E-53  5.8927E-54  3.7696E-55  2.3881E-56  1.5034E-57
       9.4175E-59  5.8557E-60  3.6038E-61  2.1988E-62  1.3365E-63  8.1025E-65  4.8758E-66  2.9043E-67  1.7210E-68  1.0195E-69
       6.0124E-71  3.5095E-72  2.0380E-73  1.1853E-74  6.8598E-76  3.9299E-77  2.2488E-78  1.2881E-79  7.3091E-81  4.1283E-82
       2.3381E-83  1.3135E-84  7.3454E-86  4.1185E-87  2.2886E-88  1.2705E-89  7.0505E-91  3.8815E-92  2.1426E-93  1.1746E-94
       6.4387E-96  3.5183E-97  1.9165E-98  1.0427E-99  5.6530-101  3.0619-102  1.6526-103  8.9085-105  4.7903-106  2.5714-107
       1.4129-108
  57   1.5312E-54  6.1738E-53  2.5160E-51  1.0059E-49  3.9245E-48  1.4876E-46  5.4571E-45  1.9304E-43  6.5565E-42  2.1257E-40
       6.5227E-39  1.8721E-37  4.9524E-36  1.1877E-34  2.5405E-33  4.7819E-32  7.8475E-31  1.1174E-29  1.3743E-28  1.4414E-27
       1.2512E-26  8.5133E-26  4.1274E-25  1.1591E-24  9.5153E-25  1.1639E-24  5.9335E-25  1.8926E-25  4.5156E-26  8.7916E-27
       1.4657E-27  2.1563E-28  2.8593E-29  3.4764E-30  3.9332E-31  4.1933E-32  4.2546E-33  4.1362E-34  3.8690E-35  3.4914E-36
[...]
       2.6092E-12  3.9858E-12  6.0480E-12  9.1185E-12  1.3663E-11  2.0350E-11  3.0131E-11  4.4354E-11  6.4915E-11  9.4467E-11
       1.3669E-10  1.9668E-10  2.8139E-10  4.0033E-10  5.6636E-10  7.9675E-10  1.1146E-09  1.5506E-09  2.1452E-09  2.9514E-09
       4.0380E-09  5.4942E-09  7.4346E-09  1.0005E-08  1.3391E-08  1.7826E-08  2.3601E-08  3.1080E-08  4.0709E-08  5.3038E-08
       6.8735E-08  8.8610E-08  1.1364E-07  1.4497E-07  1.8400E-07  2.3233E-07  2.9187E-07  3.6481E-07  4.5370E-07  5.6144E-07
       6.9134E-07  8.4711E-07  1.0329E-06  1.2534E-06  1.5137E-06  1.8194E-06  2.1765E-06  2.5914E-06  3.0712E-06  3.6230E-06
       4.2544E-06  4.9732E-06  5.7873E-06  6.7046E-06  7.7328E-06  8.8795E-06  1.0152E-05  1.1556E-05  1.3098E-05  1.4782E-05
       1.6613E-05  1.8591E-05  2.0718E-05  2.2992E-05  2.5411E-05  2.7970E-05  3.0661E-05  3.3476E-05  3.6402E-05  3.9427E-05
       4.2534E-05  4.5706E-05  4.8922E-05  5.2161E-05  5.5401E-05  5.8617E-05  6.1783E-05  6.4873E-05  6.7863E-05  7.0725E-05
       7.3435E-05  7.5968E-05  7.8302E-05  8.0417E-05  8.2297E-05  8.3929E-05  8.5307E-05  8.6431E-05  8.7307E-05  8.7940E-05
       8.8312E-05
  89   1.0045E-14  1.8431E-14  3.2150E-14  5.4251E-14  8.9410E-14  1.4476E-13  2.3112E-13  3.6478E-13  5.7011E-13  8.8338E-13
       1.3582E-12  2.0735E-12  3.1443E-12  4.7378E-12  7.0951E-12  1.0562E-11  1.5631E-11  2.2999E-11  3.3649E-11  4.8952E-11
       7.0815E-11  1.0187E-10  1.4573E-10  2.0731E-10  2.9328E-10  4.1262E-10  5.7730E-10  8.0328E-10  1.1116E-09  1.5297E-09
       2.0937E-09  2.8500E-09  3.8585E-09  5.1955E-09  6.9581E-09  9.2685E-09  1.2280E-08  1.6184E-08  2.1216E-08  2.7665E-08
       3.5886E-08  4.6307E-08  5.9445E-08  7.5918E-08  9.6459E-08  1.2193E-07  1.5336E-07  1.9192E-07  2.3897E-07  2.9609E-07
       3.6505E-07  4.4789E-07  5.4686E-07  6.6449E-07  8.0357E-07  9.6716E-07  1.1586E-06  1.3814E-06  1.6395E-06  1.9368E-06
       2.2776E-06  2.6662E-06  3.1071E-06  3.6048E-06  4.1637E-06  4.7881E-06  5.4820E-06  6.2494E-06  7.0936E-06  8.0174E-06
       9.0231E-06  1.0112E-05  1.1285E-05  1.2542E-05  1.3882E-05  1.5301E-05  1.6797E-05  1.8365E-05  1.9999E-05  2.1691E-05
       2.3433E-05  2.5215E-05  2.7027E-05  2.8857E-05  3.0691E-05  3.2516E-05  3.4319E-05  3.6084E-05  3.7798E-05  3.9444E-05
       4.1010E-05  4.2480E-05  4.3843E-05  4.5086E-05  4.6199E-05  4.7175E-05  4.8010E-05  4.8701E-05  4.9250E-05  4.9654E-05
       4.9896E-05
  90   5.2238E-15  9.5826E-15  1.6710E-14  2.8185E-14  4.6429E-14  7.5133E-14  1.1988E-13  1.8910E-13  2.9535E-13  4.5736E-13
       7.0278E-13  1.0722E-12  1.6250E-12  2.4471E-12  3.6627E-12  5.4498E-12  8.0616E-12  1.1857E-11  1.7342E-11  2.5221E-11
       3.6476E-11  5.2462E-11  7.5039E-11  1.0674E-10  1.5101E-10  2.1246E-10  2.9729E-10  4.1373E-10  5.7264E-10  7.8830E-10
       1.0793E-09  1.4698E-09  1.9907E-09  2.6819E-09  3.5938E-09  4.7902E-09  6.3509E-09  8.3759E-09  1.0988E-08  1.4341E-08
       1.8618E-08  2.4047E-08  3.0898E-08  3.9499E-08  5.0238E-08  6.3573E-08  8.0045E-08  1.0028E-07  1.2501E-07  1.5507E-07
       1.9143E-07  2.3515E-07  2.8747E-07  3.4975E-07  4.2350E-07  5.1038E-07  6.1220E-07  7.3091E-07  8.6862E-07  1.0275E-06
       1.2100E-06  1.4184E-06  1.6553E-06  1.9230E-06  2.2243E-06  2.5614E-06  2.9367E-06  3.3525E-06  3.8107E-06  4.3130E-06
       4.8607E-06  5.4550E-06  6.0964E-06  6.7848E-06  7.5198E-06  8.3003E-06  9.1245E-06  9.9899E-06  1.0894E-05  1.1831E-05
       1.2799E-05  1.3791E-05  1.4802E-05  1.5825E-05  1.6854E-05  1.7880E-05  1.8896E-05  1.9894E-05  2.0867E-05  2.1804E-05
       2.2699E-05  2.3543E-05  2.4330E-05  2.5052E-05  2.5703E-05  2.6279E-05  2.6777E-05  2.7195E-05  2.7532E-05  2.7784E-05
       2.7937E-05
  91   2.6989E-15  4.9500E-15  8.6293E-15  1.4550E-14  2.3956E-14  3.8747E-14  6.1792E-14  9.7411E-14  1.5206E-13  2.3533E-13
       3.6139E-13  5.5106E-13  8.3468E-13  1.2563E-12  1.8795E-12  2.7952E-12  4.1331E-12  6.0767E-12  8.8844E-12  1.2917E-11
       1.8678E-11  2.6859E-11  3.8413E-11  5.4638E-11  7.7294E-11  1.0875E-10  1.5219E-10  2.1183E-10  2.9326E-10  4.0381E-10
       5.5306E-10  7.5343E-10  1.0209E-09  1.3760E-09  1.8449E-09  2.4605E-09  3.2642E-09  4.3079E-09  5.6557E-09  7.3867E-09
       9.5978E-09  1.2407E-08  1.5956E-08  2.0417E-08  2.5992E-08  3.2924E-08  4.1498E-08  5.2044E-08  6.4949E-08  8.0658E-08
       9.9679E-08  1.2259E-07  1.5004E-07  1.8277E-07  2.2158E-07  2.6737E-07  3.2111E-07  3.8387E-07  4.5677E-07  5.4104E-07
       6.3794E-07  7.4881E-07  8.7500E-07  1.0179E-06  1.1789E-06  1.3594E-06  1.5607E-06  1.7841E-06  2.0306E-06  2.3014E-06
       2.5972E-06  2.9187E-06  3.2662E-06  3.6400E-06  4.0398E-06  4.4650E-06  4.9150E-06  5.3884E-06  5.8836E-06  6.3987E-06
       6.9312E-06  7.4784E-06  8.0371E-06  8.6040E-06  9.1752E-06  9.7466E-06  1.0314E-05  1.0873E-05  1.1419E-05  1.1947E-05
       1.2454E-05  1.2933E-05  1.3383E-05  1.3797E-05  1.4173E-05  1.4509E-05  1.4802E-05  1.5051E-05  1.5254E-05  1.5408E-05
       1.5503E-05
  92   1.3853E-15  2.5403E-15  4.4272E-15  7.4619E-15  1.2281E-14  1.9854E-14  3.1646E-14  4.9861E-14  7.7791E-14  1.2032E-13
       1.8468E-13  2.8145E-13  4.2609E-13  6.4101E-13  9.5851E-13  1.4249E-12  2.1061E-12  3.0954E-12  4.5242E-12  6.5762E-12
       9.5067E-12  1.3668E-11  1.9546E-11  2.7800E-11  3.9327E-11  5.5336E-11  7.7445E-11  1.0781E-10  1.4928E-10  2.0560E-10
       2.8168E-10  3.8386E-10  5.2035E-10  7.0167E-10  9.4122E-10  1.2560E-09  1.6672E-09  2.2017E-09  2.8924E-09  3.7804E-09
       4.9158E-09  6.3596E-09  8.1858E-09  1.0483E-08  1.3358E-08  1.6937E-08  2.1368E-08  2.6825E-08  3.3512E-08  4.1661E-08
       5.1541E-08  6.3458E-08  7.7756E-08  9.4824E-08  1.1509E-07  1.3904E-07  1.6719E-07  2.0011E-07  2.3840E-07  2.8274E-07
       3.3379E-07  3.9229E-07  4.5899E-07  5.3463E-07  6.2000E-07  7.1585E-07  8.2291E-07  9.4190E-07  1.0735E-06  1.2182E-06
       1.3766E-06  1.5490E-06  1.7357E-06  1.9368E-06  2.1524E-06  2.3821E-06  2.6255E-06  2.8822E-06  3.1511E-06  3.4315E-06
       3.7219E-06  4.0209E-06  4.3269E-06  4.6381E-06  4.9523E-06  5.2675E-06  5.5813E-06  5.8913E-06  6.1950E-06  6.4899E-06
       6.7734E-06  7.0432E-06  7.2969E-06  7.5323E-06  7.7474E-06  7.9406E-06  8.1106E-06  8.2565E-06  8.3771E-06  8.4697E-06
       8.5269E-06
  93   7.0636E-16  1.2951E-15  2.2565E-15  3.8019E-15  6.2548E-15  1.0107E-14  1.6103E-14  2.5358E-14  3.9542E-14  6.1131E-14
       9.3779E-14  1.4285E-13  2.1615E-13  3.2502E-13  4.8580E-13  7.2187E-13  1.0666E-12  1.5671E-12  2.2897E-12  3.3274E-12
       4.8092E-12  6.9134E-12  9.8850E-12  1.4058E-11  1.9887E-11  2.7984E-11  3.9168E-11  5.4532E-11  7.5521E-11  1.0404E-10
       1.4257E-10  1.9436E-10  2.6357E-10  3.5556E-10  4.7716E-10  6.3705E-10  8.4611E-10  1.1180E-09  1.4697E-09  1.9223E-09
       2.5014E-09  3.2385E-09  4.1717E-09  5.3470E-09  6.8192E-09  8.6538E-09  1.0928E-08  1.3732E-08  1.7171E-08  2.1368E-08
       2.6463E-08  3.2616E-08  4.0008E-08  4.8843E-08  5.9350E-08  7.1779E-08  8.6410E-08  1.0354E-07  1.2350E-07  1.4664E-07
       1.7333E-07  2.0396E-07  2.3892E-07  2.7864E-07  3.2353E-07  3.7401E-07  4.3049E-07  4.9335E-07  5.6297E-07  6.3968E-07
       7.2375E-07  8.1544E-07  9.1489E-07  1.0222E-06  1.1374E-06  1.2604E-06  1.3910E-06  1.5289E-06  1.6737E-06  1.8249E-06
       1.9819E-06  2.1438E-06  2.3099E-06  2.4791E-06  2.6504E-06  2.8227E-06  2.9946E-06  3.1649E-06  3.3322E-06  3.4951E-06
       3.6524E-06  3.8026E-06  3.9444E-06  4.0767E-06  4.1982E-06  4.3081E-06  4.4056E-06  4.4900E-06  4.5605E-06  4.6152E-06
       4.6491E-06
  94   3.5778E-16  6.5587E-16  1.1425E-15  1.9243E-15  3.1647E-15  5.1117E-15  8.1402E-15  1.2813E-14  1.9970E-14  3.0858E-14
       4.7315E-14  7.2037E-14  1.0895E-13  1.6376E-13  2.4466E-13  3.6342E-13  5.3676E-13  7.8839E-13  1.1516E-12  1.6731E-12
       2.4177E-12  3.4751E-12  4.9682E-12  7.0653E-12  9.9946E-12  1.4064E-11  1.9686E-11  2.7411E-11  3.7969E-11  5.2317E-11
       7.1714E-11  9.7790E-11  1.3266E-10  1.7903E-10  2.4037E-10  3.2106E-10  4.2665E-10  5.6407E-10  7.4197E-10  9.7103E-10
       1.2644E-09  1.6382E-09  2.1118E-09  2.7089E-09  3.4576E-09  4.3915E-09  5.5504E-09  6.9808E-09  8.7375E-09  1.0883E-08
       1.3492E-08  1.6645E-08  2.0438E-08  2.4978E-08  3.0383E-08  3.6786E-08  4.4332E-08  5.3182E-08  6.3506E-08  7.5490E-08
       8.9332E-08  1.0524E-07  1.2342E-07  1.4411E-07  1.6753E-07  1.9390E-07  2.2345E-07  2.5639E-07  2.9293E-07  3.3325E-07
       3.7751E-07  4.2585E-07  4.7838E-07  5.3516E-07  5.9621E-07  6.6149E-07  7.3094E-07  8.0440E-07  8.8169E-07  9.6253E-07
       1.0466E-06  1.1335E-06  1.2229E-06  1.3141E-06  1.4066E-06  1.4999E-06  1.5932E-06  1.6859E-06  1.7772E-06  1.8664E-06
       1.9528E-06  2.0356E-06  2.1141E-06  2.1876E-06  2.2556E-06  2.3174E-06  2.3726E-06  2.4208E-06  2.4614E-06  2.4932E-06
       2.5131E-06
  95   1.8002E-16  3.2996E-16  5.7463E-16  9.6757E-16  1.5907E-15  2.5683E-15  4.0882E-15  6.4321E-15  1.0020E-14  1.5476E-14
       2.3719E-14  3.6096E-14  5.4570E-14  8.1985E-14  1.2244E-13  1.8180E-13  2.6843E-13  3.9415E-13  5.7559E-13  8.3605E-13
       1.2079E-12  1.7359E-12  2.4814E-12  3.5286E-12  4.9915E-12  7.0240E-12  9.8325E-12  1.3693E-11  1.8969E-11  2.6143E-11
       3.5844E-11  4.8891E-11  6.6346E-11  8.9570E-11  1.2031E-10  1.6077E-10  2.1374E-10  2.8274E-10  3.7212E-10  4.8730E-10
       6.3494E-10  8.2319E-10  1.0620E-09  1.3632E-09  1.7413E-09  2.2134E-09  2.7998E-09  3.5244E-09  4.4152E-09  5.5046E-09
       6.8301E-09  8.4346E-09  1.0367E-08  1.2682E-08  1.5442E-08  1.8716E-08  2.2579E-08  2.7115E-08  3.2414E-08  3.8574E-08
       4.5697E-08  5.3894E-08  6.3279E-08  7.3970E-08  8.6089E-08  9.9756E-08  1.1509E-07  1.3221E-07  1.5123E-07  1.7225E-07
       1.9537E-07  2.2065E-07  2.4816E-07  2.7795E-07  3.1003E-07  3.4440E-07  3.8101E-07  4.1982E-07  4.6071E-07  5.0357E-07
       5.4822E-07  5.9448E-07  6.4211E-07  6.9085E-07  7.4040E-07  7.9045E-07  8.4065E-07  8.9063E-07  9.4001E-07  9.8839E-07
       1.0354E-06  1.0806E-06  1.1236E-06  1.1641E-06  1.2017E-06  1.2361E-06  1.2670E-06  1.2942E-06  1.3173E-06  1.3355E-06
       1.3470E-06
  96   8.9987E-17  1.6492E-16  2.8714E-16  4.8335E-16  7.9435E-16  1.2821E-15  2.0400E-15  3.2082E-15  4.9958E-15  7.7125E-15
       1.1815E-14  1.7972E-14  2.7159E-14  4.0788E-14  6.0891E-14  9.0381E-14  1.3340E-13  1.9582E-13  2.8590E-13  4.1518E-13
       5.9972E-13  8.6173E-13  1.2317E-12  1.7514E-12  2.4774E-12  3.4863E-12  4.8806E-12  6.7972E-12  9.4179E-12  1.2982E-11
       1.7803E-11  2.4291E-11  3.2973E-11  4.4530E-11  5.9834E-11  7.9991E-11  1.0640E-10  1.4082E-10  1.8543E-10  2.4297E-10
       3.1677E-10  4.1095E-10  5.3051E-10  6.8148E-10  8.7114E-10  1.1082E-09  1.4029E-09  1.7674E-09  2.2160E-09  2.7651E-09
       3.4340E-09  4.2446E-09  5.2219E-09  6.3943E-09  7.7935E-09  9.4551E-09  1.1418E-08  1.3726E-08  1.6426E-08  1.9568E-08
       2.3206E-08  2.7398E-08  3.2205E-08  3.7688E-08  4.3911E-08  5.0939E-08  5.8837E-08  6.7668E-08  7.7491E-08  8.8363E-08
       1.0034E-07  1.1345E-07  1.2775E-07  1.4325E-07  1.5997E-07  1.7792E-07  1.9707E-07  2.1740E-07  2.3886E-07  2.6139E-07
       2.8491E-07  3.0932E-07  3.3450E-07  3.6032E-07  3.8663E-07  4.1326E-07  4.4003E-07  4.6675E-07  4.9322E-07  5.1922E-07
       5.4456E-07  5.6902E-07  5.9238E-07  6.1445E-07  6.3505E-07  6.5400E-07  6.7115E-07  6.8632E-07  6.9929E-07  7.0958E-07
       7.1608E-07
  97   4.4715E-17  8.1938E-17  1.4263E-16  2.4003E-16  3.9435E-16  6.3625E-16  1.0120E-15  1.5909E-15  2.4762E-15  3.8212E-15
       5.8513E-15  8.8970E-15  1.3439E-14  2.0176E-14  3.0109E-14  4.4676E-14  6.5921E-14  9.6739E-14  1.4120E-13  2.0501E-13
       2.9608E-13  4.2537E-13  6.0795E-13  8.6439E-13  1.2227E-12  1.7206E-12  2.4088E-12  3.3552E-12  4.6494E-12  6.4100E-12
       8.7924E-12  1.1999E-11  1.6293E-11  2.2011E-11  2.9587E-11  3.9570E-11  5.2657E-11  6.9723E-11  9.1861E-11  1.2043E-10
       1.5710E-10  2.0393E-10  2.6343E-10  3.3863E-10  4.3318E-10  5.5145E-10  6.9863E-10  8.8085E-10  1.1053E-09  1.3804E-09
       1.7158E-09  2.1227E-09  2.6138E-09  3.2035E-09  3.9082E-09  4.7460E-09  5.7371E-09  6.9036E-09  8.2697E-09  9.8616E-09
       1.1707E-08  1.3837E-08  1.6282E-08  1.9074E-08  2.2248E-08  2.5837E-08  2.9876E-08  3.4399E-08  3.9437E-08  4.5021E-08
       5.1179E-08  5.7936E-08  6.5312E-08  7.3322E-08  8.1976E-08  9.1277E-08  1.0122E-07  1.1179E-07  1.2297E-07  1.3473E-07
       1.4703E-07  1.5981E-07  1.7303E-07  1.8660E-07  2.0047E-07  2.1453E-07  2.2870E-07  2.4287E-07  2.5695E-07  2.7082E-07
       2.8438E-07  2.9750E-07  3.1009E-07  3.2202E-07  3.3321E-07  3.4356E-07  3.5297E-07  3.6136E-07  3.6857E-07  3.7432E-07
       3.7797E-07
  98   2.2146E-17  4.0576E-17  7.0618E-17  1.1881E-16  1.9513E-16  3.1472E-16  5.0038E-16  7.8631E-16  1.2234E-15  1.8871E-15
       2.8886E-15  4.3903E-15  6.6292E-15  9.9482E-15  1.4841E-14  2.2014E-14  3.2472E-14  4.7640E-14  6.9519E-14  1.0091E-13
       1.4571E-13  2.0931E-13  2.9913E-13  4.2528E-13  6.0154E-13  8.4650E-13  1.1852E-12  1.6509E-12  2.2880E-12  3.1550E-12
       4.3285E-12  5.9086E-12  8.0250E-12  1.0845E-11  1.4583E-11  1.9511E-11  2.5975E-11  3.4409E-11  4.5357E-11  5.9494E-11
       7.7655E-11  1.0086E-10  1.3037E-10  1.6770E-10  2.1467E-10  2.7347E-10  3.4672E-10  4.3749E-10  5.4941E-10  6.8670E-10
       8.5427E-10  1.0578E-09  1.3036E-09  1.5992E-09  1.9528E-09  2.3737E-09  2.8721E-09  3.4595E-09  4.1482E-09  4.9517E-09
       5.8845E-09  6.9622E-09  8.2008E-09  9.6176E-09  1.1230E-08  1.3056E-08  1.5114E-08  1.7420E-08  1.9994E-08  2.2851E-08
       2.6006E-08  2.9473E-08  3.3263E-08  3.7386E-08  4.1847E-08  4.6649E-08  5.1790E-08  5.7267E-08  6.3068E-08  6.9180E-08
       7.5583E-08  8.2253E-08  8.9161E-08  9.6272E-08  1.0355E-07  1.1094E-07  1.1841E-07  1.2590E-07  1.3336E-07  1.4073E-07
       1.4795E-07  1.5497E-07  1.6172E-07  1.6814E-07  1.7420E-07  1.7982E-07  1.8496E-07  1.8957E-07  1.9355E-07  1.9675E-07
       1.9879E-07
  99   1.1057E-17  2.0256E-17  3.5245E-17  5.9282E-17  9.7333E-17  1.5693E-16  2.4941E-16  3.9177E-16  6.0931E-16  9.3949E-16
       1.4374E-15  2.1839E-15  3.2963E-15  4.9447E-15  7.3739E-15  1.0934E-14  1.6124E-14  2.3649E-14  3.4501E-14  5.0070E-14
       7.2287E-14  1.0382E-13  1.4836E-13  2.1091E-13  2.9831E-13  4.1980E-13  5.8778E-13  8.1882E-13  1.1350E-12  1.5653E-12
       2.1479E-12  2.9327E-12  3.9843E-12  5.3860E-12  7.2448E-12  9.6969E-12  1.2915E-11  1.7117E-11  2.2574E-11  2.9625E-11
       3.8690E-11  5.0284E-11  6.5035E-11  8.3710E-11  1.0723E-10  1.3670E-10  1.7344E-10  2.1902E-10  2.7527E-10  3.4434E-10
       4.2873E-10  5.3131E-10  6.5540E-10  8.0475E-10  9.8361E-10  1.1967E-09  1.4494E-09  1.7476E-09  2.0976E-09  2.5065E-09
       2.9818E-09  3.5316E-09  4.1644E-09  4.8891E-09  5.7151E-09  6.6517E-09  7.7086E-09  8.8954E-09  1.0221E-08  1.1695E-08
       1.3325E-08  1.5119E-08  1.7084E-08  1.9224E-08  2.1544E-08  2.4045E-08  2.6727E-08  2.9589E-08  3.2626E-08  3.5832E-08
       3.9197E-08  4.2708E-08  4.6352E-08  5.0111E-08  5.3965E-08  5.7892E-08  6.1866E-08  6.5862E-08  6.9851E-08  7.3803E-08
       7.7688E-08  8.1474E-08  8.5129E-08  8.8624E-08  9.1929E-08  9.5014E-08  9.7852E-08  1.0041E-07  1.0263E-07  1.0443E-07
       1.0557E-07
 100   5.8244E-18  1.0669E-17  1.8560E-17  3.1209E-17  5.1224E-17  8.2557E-17  1.3116E-16  2.0594E-16  3.2015E-16  4.9343E-16
       7.5463E-16  1.1460E-15  1.7290E-15  2.5927E-15  3.8650E-15  5.7291E-15  8.4456E-15  1.2383E-14  1.8062E-14  2.6206E-14
       3.7827E-14  5.4321E-14  7.7612E-14  1.1033E-13  1.5604E-13  2.1959E-13  3.0747E-13  4.2837E-13  5.9382E-13  8.1910E-13
       1.1242E-12  1.5354E-12  2.0865E-12  2.8215E-12  3.7966E-12  5.0836E-12  6.7737E-12  8.9815E-12  1.1851E-11  1.5562E-11
       2.0335E-11  2.6445E-11  3.4225E-11  4.4082E-11  5.6508E-11  7.2093E-11  9.1541E-11  1.1569E-10  1.4552E-10  1.8219E-10
       2.2704E-10  2.8162E-10  3.4772E-10  4.2737E-10  5.2286E-10  6.3679E-10  7.7204E-10  9.3182E-10  1.1196E-09  1.3393E-09
       1.5951E-09  1.8912E-09  2.2326E-09  2.6242E-09  3.0710E-09  3.5785E-09  4.1520E-09  4.7969E-09  5.5186E-09  6.3220E-09
       7.2121E-09  8.1933E-09  9.2694E-09  1.0444E-08  1.1719E-08  1.3096E-08  1.4575E-08  1.6156E-08  1.7838E-08  1.9616E-08
       2.1486E-08  2.3441E-08  2.5474E-08  2.7576E-08  2.9736E-08  3.1942E-08  3.4181E-08  3.6437E-08  3.8695E-08  4.0939E-08
       4.3151E-08  4.5315E-08  4.7411E-08  4.9424E-08  5.1335E-08  5.3129E-08  5.4787E-08  5.6289E-08  5.7604E-08  5.8669E-08
       5.9353E-08
 101   3.7500E-18  6.8682E-18  1.1946E-17  2.0083E-17  3.2953E-17  5.3094E-17  8.4323E-17  1.3235E-16  2.0568E-16  3.1688E-16
       4.8445E-16  7.3544E-16  1.1092E-15  1.6627E-15  2.4778E-15  3.6718E-15  5.4114E-15  7.9325E-15  1.1567E-14  1.6780E-14
       2.4217E-14  3.4772E-14  4.9675E-14  7.0609E-14  9.9864E-14  1.4053E-13  1.9678E-13  2.7417E-13  3.8011E-13  5.2438E-13
       7.1984E-13  9.8330E-13  1.3366E-12  1.8079E-12  2.4334E-12  3.2595E-12  4.3447E-12  5.7632E-12  7.6078E-12  9.9944E-12
       1.3067E-11  1.7001E-11  2.2015E-11  2.8372E-11  3.6392E-11  4.6458E-11  5.9029E-11  7.4651E-11  9.3967E-11  1.1773E-10
       1.4682E-10  1.8226E-10  2.2522E-10  2.7703E-10  3.3921E-10  4.1348E-10  5.0173E-10  6.0610E-10  7.2892E-10  8.7275E-10
       1.0404E-09  1.2347E-09  1.4590E-09  1.7165E-09  2.0108E-09  2.3453E-09  2.7239E-09  3.1502E-09  3.6278E-09  4.1603E-09
       4.7509E-09  5.4029E-09  6.1189E-09  6.9014E-09  7.7521E-09  8.6723E-09  9.6625E-09  1.0723E-08  1.1851E-08  1.3047E-08
       1.4306E-08  1.5625E-08  1.6999E-08  1.8422E-08  1.9887E-08  2.1386E-08  2.2911E-08  2.4450E-08  2.5994E-08  2.7533E-08
       2.9053E-08  3.0544E-08  3.1993E-08  3.3388E-08  3.4718E-08  3.5971E-08  3.7134E-08  3.8193E-08  3.9123E-08  3.9879E-08
       4.0366E-08

 CONCENTRATION WILL BE SAVED ON UNIT 1028 AT END OF TIME STEP  150, STRESS PERIOD    2


  MASS BUDGET FOR ENTIRE MODEL AT END OF TIME STEP  150, STRESS PERIOD   2
  ---------------------------------------------------------------------------------------------------

     CUMULATIVE MASS      M       RATES FOR THIS TIME STEP      M/T          PACKAGE NAME    
     ------------------                 ------------------------                     ----------------

           IN:                                      IN:
           ---                                      ---
     STORAGE-AQUEOUS =         569.4246       STORAGE-AQUEOUS =           0.7014     MST                              
                 CHD =           0.0000                   CHD =           0.0000     SSM_CHD-1                        
                 CNC =     4856600.8643                   CNC =        1586.1392     CNC                              

            TOTAL IN =     4857170.2889              TOTAL IN =        1586.8406

          OUT:                                     OUT:
          ----                                     ----
     STORAGE-AQUEOUS =     3942098.9701       STORAGE-AQUEOUS =         671.5659     MST                              
                 CHD =      343191.5748                   CHD =         720.6087     SSM_CHD-1                        
                 CNC =      571879.7441                   CNC =         194.6661     CNC                              

           TOTAL OUT =     4857170.2889             TOTAL OUT =        1586.8406

            IN - OUT =       1.2099E-05              IN - OUT =      -1.0160E-07

 PERCENT DISCREPANCY =           0.00     PERCENT DISCREPANCY =          -0.00




         TIME SUMMARY AT END OF TIME STEP  150 IN STRESS PERIOD    2
                    SECONDS     MINUTES      HOURS       DAYS        YEARS
                    -----------------------------------------------------------
   TIME STEP LENGTH 1.72800E+06  28800.      480.00      20.000     5.47570E-02
 STRESS PERIOD TIME 2.59200E+08 4.32000E+06  72000.      3000.0      8.2136    
         TOTAL TIME 2.59286E+08 4.32144E+06  72024.      3001.0      8.2163    


end timestep

